version 2
run Nonmonitoring-exponential-549-20210224-17:49:32-27075
attr configname Nonmonitoring-exponential
attr datetime 20210224-17:49:32
attr experiment Nonmonitoring-exponential
attr inifile aerocom.ini
attr iterationvars $0=50
attr iterationvarsf 50-
attr measurement $0=50
attr network Aerocom
attr processid 27075
attr repetition 49
attr replication #49
attr resultdir results
attr runnumber 549
attr seedset 49
param **.t 2s
param **.k 50ms
param **.X 0.05s
param **.m 1s
param **.tDistribution "\"exponential\""
param **.operationMode 1
param **.s "70 byte"
param **.dimPoolMax 10000
param **.dimPoolMin 8000
param **.nDL 16
param **.nA 1
param **.DLMaxCapacity 0
param **.trasmitting false

vector 0 Aerocom.aircraft[0].dataLink[5] tDistribution:vector ETV
attr "" ""
attr source computeTDistribution
vector 1 Aerocom.aircraft[0].packetGenerator arrivalTime:vector ETV
attr "" ""
attr source computeArrivalTime
vector 2 Aerocom.aircraft[0].linkSelector waitingTime:vector ETV
attr "" ""
attr source computeWaitingTime
vector 3 Aerocom.aircraft[0].linkSelector queueLength:vector ETV
attr "" ""
attr source computeQueueLength
vector 4 Aerocom.aircraft[0].dataLink[5] actualCapacity:vector ETV
attr "" ""
attr source computeActualCapacity
vector 5 Aerocom.aircraft[0].linkSelector serviceTime:vector ETV
attr "" ""
attr source computeServiceTime
vector 6 Aerocom.aircraft[0].linkSelector responseTime:vector ETV
attr "" ""
attr source computeResponseTime
vector 7 Aerocom.aircraft[0].dataLink[1] tDistribution:vector ETV
attr "" ""
attr source computeTDistribution
vector 8 Aerocom.aircraft[0].dataLink[3] tDistribution:vector ETV
attr "" ""
attr source computeTDistribution
vector 9 Aerocom.aircraft[0].dataLink[4] tDistribution:vector ETV
attr "" ""
attr source computeTDistribution
vector 10 Aerocom.aircraft[0].dataLink[9] tDistribution:vector ETV
attr "" ""
attr source computeTDistribution
vector 11 Aerocom.aircraft[0].dataLink[13] tDistribution:vector ETV
attr "" ""
attr source computeTDistribution
vector 12 Aerocom.aircraft[0].dataLink[14] tDistribution:vector ETV
attr "" ""
attr source computeTDistribution
vector 13 Aerocom.aircraft[0].dataLink[2] tDistribution:vector ETV
attr "" ""
attr source computeTDistribution
vector 14 Aerocom.aircraft[0].dataLink[10] tDistribution:vector ETV
attr "" ""
attr source computeTDistribution
vector 15 Aerocom.aircraft[0].dataLink[12] tDistribution:vector ETV
attr "" ""
attr source computeTDistribution
vector 16 Aerocom.aircraft[0].dataLink[6] tDistribution:vector ETV
attr "" ""
attr source computeTDistribution
vector 17 Aerocom.aircraft[0].dataLink[15] tDistribution:vector ETV
attr "" ""
attr source computeTDistribution
vector 18 Aerocom.aircraft[0].dataLink[11] tDistribution:vector ETV
attr "" ""
attr source computeTDistribution
vector 19 Aerocom.aircraft[0].dataLink[8] tDistribution:vector ETV
attr "" ""
attr source computeTDistribution
vector 20 Aerocom.aircraft[0].dataLink[0] tDistribution:vector ETV
attr "" ""
attr source computeTDistribution
vector 21 Aerocom.aircraft[0].dataLink[7] tDistribution:vector ETV
attr "" ""
attr source computeTDistribution
0	1111	10.077839957342	1.3946728272758
0	1251	11.472512784618	12.615621131014
0	2529	24.088133915632	2.9195200761104
0	2857	27.007653991742	0.58230977745839
0	2938	27.5899637692	0.26972015072809
0	2960	27.859683919928	4.1054559121952
0	3369	31.965139832123	7.2210891050004
0	4167	39.186228937123	1.3131648039338
0	4316	40.499393741057	4.1099675063302
0	4794	44.609361247387	4.5375760646453
0	5273	49.146937312032	1.2022881996782
0	5358	50.34922551171	1.6818925788659
0	5567	52.031118090576	2.1313896638414
0	5779	54.162507754417	1.6606462380619
0	5964	55.823153992479	2.7715350072085
0	6298	58.594688999688	0.5750506906358
0	6348	59.169739690324	0.28961761856534
0	6406	59.459357308889	0.0037152463908506
0	6407	59.46307255528	1.3298503286711
0	6541	60.792922883951	1.6313537402935
0	6764	62.424276624244	0.19185480730788
0	6777	62.616131431552	0.76642023467056
0	6881	63.382551666223	3.4307324381692
0	7285	66.813284104392	2.9531511136131
0	7651	69.766435218005	0.084072020413747
0	7663	69.850507238419	1.347999772501
0	7809	71.19850701092	1.2525900822068
0	7903	72.451097093127	0.36026732429856
0	7959	72.811364417426	3.91848810167
0	8340	76.729852519096	3.3713990178126
0	8767	80.101251536909	0.78352906451781
0	8844	80.884780601427	3.8669226348032
0	9272	84.75170323623	2.5349390790721
0	9538	87.286642315302	0.61858693530785
0	9617	87.90522925061	0.47220899439134
0	9646	88.377438245001	4.4805098006075
0	10119	92.857948045609	1.3907414607176
0	10307	94.248689506327	1.6004186477028
0	10422	95.84910815403	1.3817054285022
0	10576	97.230813582532	3.8473466481075
0	10990	101.078160230639	4.8967100694209
0	11532	105.97487030006	1.1335848385805
0	11650	107.10845513864	1.5849023889704
0	11874	108.69335752761	3.7499757910322
0	12323	112.443333318642	0.42657438970801
0	12358	112.86990770835	1.2246253318731
0	12518	114.094533040223	0.52294705527485
0	12569	114.617480095498	0.42908249116992
0	12668	115.046562586668	0.54740138232108
0	12742	115.593963968989	1.6467221273174
0	12886	117.240686096306	2.8982300358992
0	13161	120.138916132205	4.7004558237606
0	13711	124.839371955966	1.6931324412527
0	13881	126.532504397219	0.36830833816752
0	13898	126.900812735387	2.0392817661753
0	14182	128.940094501562	0.065117793713524
0	14188	129.005212295276	1.2802995350683
0	14323	130.285511830344	2.721488484901
0	14522	133.007000315245	3.7734737537341
0	14955	136.780474068979	5.0629126846481
0	15590	141.843386753627	0.010339223540488
0	15591	141.853725977167	0.54382063834696
0	15655	142.397546615514	3.2167521593943
0	16032	145.614298774908	3.3117860057363
0	16341	148.926084780644	1.1734951457229
0	16441	150.099579926367	2.7309459858573
0	16734	152.830525912224	4.2755075953994
0	17189	157.106033507623	1.4469286589322
0	17357	158.552962166555	1.4466622391385
0	17506	159.999624405694	1.6797752801362
0	17667	161.67939968583	0.83475891285783
0	17730	162.514158598688	0.77206378498151
0	17792	163.28622238367	0.98450703290105
0	17914	164.270729416571	0.91104286937776
0	18031	165.181772285949	0.52971760780862
0	18102	165.711489893758	1.1670791682466
0	18207	166.878569062005	0.81387132695995
0	18271	167.692440388965	1.6460969055749
0	18400	169.33853729454	1.0756823877605
0	18458	170.414219682301	3.1204325687888
0	18842	173.53465225109	0.13289556827495
0	18855	173.667547819365	2.5853789620706
0	19106	176.252926781436	1.8546346467075
0	19258	178.107561428143	0.065583201531865
0	19274	178.173144629675	1.0732567623785
0	19387	179.246401392053	2.1232310392033
0	19636	181.369632431256	0.6953438889219
0	19690	182.064976320178	1.3200374734743
0	19854	183.385013793652	0.29407864175003
0	19882	183.679092435402	1.0157697741925
0	19949	184.694862209595	1.7007128444886
0	20188	186.395575054084	0.86754781695634
0	20303	187.26312287104	3.5205509409754
0	20663	190.783673812015	0.90985035668724
0	20772	191.693524168702	4.2291154032724
0	21211	195.922639571974	1.7077722780971
0	21375	197.630411850071	1.4826581835109
0	21515	199.113070033582	2.7103135973827
0	21836	201.823383630965	1.9540217556787
0	22083	203.777405386644	0.54626676395618
0	22118	204.3236721506	1.6962177446603
0	22303	206.01988989526	1.143407394074
0	22418	207.163297289334	0.47911362284755
0	22482	207.642410912182	3.8963599768388
0	22926	211.538770889021	0.2776327875982
0	22952	211.816403676619	0.020694595165544
0	22953	211.837098271785	0.28214091825277
0	22976	212.119239190038	1.8922405652913
0	23177	214.011479755329	14.952500172272
0	24892	228.963979927601	6.9706403113367
0	25738	235.934620238938	1.395627968627
0	25869	237.330248207565	1.9945821796821
0	26142	239.324830387247	2.2319947451856
0	26345	241.556825132433	3.5955104711097
0	26729	245.152335603543	1.8875280487561
0	26948	247.039863652299	0.93498521982923
0	27025	247.974848872128	1.2089893006561
0	27167	249.183838172784	2.4592668513905
0	27448	251.643105024174	0.096557517286105
0	27465	251.73966254146	0.79049745465184
0	27551	252.530159996112	1.2553388655374
0	27666	253.785498861649	4.7092733178552
0	28154	258.494772179504	0.58244652233512
0	28214	259.077218701839	0.56150008095217
0	28266	259.638718782791	3.9009787696101
0	28610	263.539697552401	1.7065479619037
0	28787	265.246245514305	3.9723962571768
0	29234	269.218641771482	1.3369876549698
0	29373	270.555629426452	0.38741875882719
0	29391	270.943048185279	1.5047734822042
0	29542	272.447821667483	2.9913131689562
0	29848	275.439134836439	2.3168786813971
0	30098	277.756013517836	1.919061493526
0	30381	279.675075011362	4.5729976283585
0	30975	284.248072639721	3.4213541573121
0	31284	287.669426797033	0.35550319281749
0	31327	288.02492998985	0.094118086702129
0	31336	288.119048076552	1.1462723455715
0	31451	289.265320422123	1.9916858109475
0	31715	291.257006233071	1.2224074370874
0	31854	292.479413670158	2.8644632156997
0	32109	295.343876885858	0.45023790939856
0	32179	295.794114795257	0.41037043517334
0	32193	296.20448523043	0.89637010811443
0	32270	297.100855338544	7.3780218639534
0	33180	304.478877202497	1.0342097820897
0	33295	305.513086984587	2.0649133172325
0	33517	307.57800030182	5.2475188597924
0	34091	312.825519161612	1.8676297567174
0	34331	314.693148918329	2.5783464125321
0	34594	317.271495330861	4.6318531332593
0	35097	321.90334846412	0.0041850225180166
0	35098	321.907533486638	0.46981618698653
0	35163	322.377349673625	3.2311133136164
0	35511	325.608462987241	0.1580649628811
0	35534	325.766527950122	3.22935850444
0	35860	328.995886454562	0.40571419064698
0	35911	329.401600645209	4.3381136399115
0	36377	333.739714285121	0.32979466910663
0	36425	334.069508954228	1.5998508906201
0	36628	335.669359844848	0.80099213576085
0	36701	336.470351980609	1.6709290154553
0	36838	338.141280996064	0.65079322052016
0	36894	338.792074216584	1.6910029115301
0	37082	340.483077128114	0.93455398896676
0	37209	341.417631117081	0.8742492440461
0	37281	342.291880361127	2.7892539179155
0	37616	345.081134279043	0.08989856585119
0	37643	345.171032844894	0.78606752863111
0	37772	345.957100373525	1.1555323961781
0	37900	347.112632769703	1.1432410212715
0	38013	348.255873790975	1.3354216086036
0	38187	349.591295399579	4.6313248464179
0	38753	354.222620245997	0.67389297626165
0	38845	354.896513222259	0.63871800716237
0	38909	355.535231229421	0.64871083551311
0	38990	356.183942064934	0.36255483061779
0	39050	356.546496895552	2.2540319872102
0	39308	358.800528882762	4.8999742917516
0	39819	363.700503174514	0.35660297485583
0	39861	364.05710614937	2.1657965357726
0	40058	366.222902685143	7.6909095266099
0	40858	373.913812211753	1.1655907288825
0	40947	375.079402940635	7.1421761509955
0	41723	382.221579091631	1.4787931221529
0	41878	383.700372213784	4.0750592152523
0	42365	387.775431429036	0.6088492285028
0	42454	388.384280657539	6.9445760914993
0	43370	395.328856749038	0.50986285590488
0	43399	395.838719604943	1.0481207548692
0	43495	396.886840359812	0.77605288395178
0	43597	397.662893243764	1.52316054382
0	43767	399.186053787584	1.6149896072529
1	1112	10.088672867603	0.039870763205
1	1117	10.128543630808	0.040952906318
1	1122	10.169496537126	0.089271089266
1	1128	10.258767626392	0.086057875993
1	1133	10.344825502385	0.082773073742
1	1138	10.427598576127	0.000176251271
1	1140	10.427774827398	0.086659331288
1	1149	10.514434158686	0.191737579978
1	1156	10.706171738664	0.001157455299
1	1158	10.707329193963	0.004004591329
1	1160	10.711333785292	0.041651939784
1	1172	10.752985725076	0.019602108554
1	1177	10.77258783363	0.105831050647
1	1182	10.878418884277	0.096357984183
1	1188	10.97477686846	0.031589376557
1	1193	11.006366245017	0.028900081852
1	1198	11.035266326869	0.123644384332
1	1203	11.158910711201	0.017252526337
1	1208	11.176163237538	0.057479149718
1	1214	11.233642387256	0.038272328209
1	1219	11.271914715465	0.033156485214
1	1225	11.305071200679	0.056896538817
1	1231	11.361967739496	0.082274692857
1	1236	11.444242432353	0.008428234341
1	1241	11.452670666694	0.005615867775
1	1243	11.458286534469	0.0678470432
1	1252	11.526133577669	0.063334935284
1	1257	11.589468512953	0.155294157872
1	1265	11.744762670825	0.055343599247
1	1270	11.800106270072	0.058598759931
1	1276	11.858705030003	0.037435919268
1	1281	11.896140949271	0.070388342179
1	1286	11.96652929145	0.074080248197
1	1293	12.040609539647	0.153017105213
1	1299	12.19362664486	0.046942728065
1	1304	12.240569372925	0.16624812354
1	1311	12.406817496465	0.014962850496
1	1316	12.421780346961	0.003479017786
1	1318	12.425259364747	0.012731510976
1	1326	12.437990875723	0.159450790217
1	1332	12.59744166594	0.045997564723
1	1337	12.643439230663	0.029097662797
1	1342	12.67253689346	0.04847654132
1	1347	12.72101343478	0.085477423865
1	1352	12.806490858645	0.053462136062
1	1358	12.859952994707	0.019463660712
1	1364	12.879416655419	0.00775944638
1	1369	12.887176101799	0.229177513269
1	1377	13.116353615068	0.117850267332
1	1382	13.2342038824	0.072750260205
1	1387	13.306954142605	0.049511174402
1	1392	13.356465317007	0.096747583665
1	1398	13.453212900672	0.187040506791
1	1404	13.640253407463	0.040998839783
1	1409	13.681252247246	0.048331549731
1	1414	13.729583796977	0.067457207406
1	1419	13.797041004383	0.088112572544
1	1424	13.885153576927	0.055260621474
1	1429	13.940414198401	0.0031126642
1	1431	13.943526862601	0.026354539698
1	1439	13.969881402299	0.086182164163
1	1444	14.056063566462	0.07456977135
1	1449	14.130633337812	0.068443926256
1	1456	14.199077264068	0.015150721333
1	1461	14.214227985401	0.016096710157
1	1466	14.230324695558	0.086532572131
1	1471	14.316857267689	0.006989967363
1	1473	14.323847235052	0.133801307239
1	1481	14.457648542291	0.037210216672
1	1486	14.494858758963	0.006638466544
1	1488	14.501497225507	0.071390595711
1	1496	14.572887821218	0.027752683298
1	1501	14.600640504516	0.030782420857
1	1506	14.631422925373	0.150238383195
1	1511	14.781661308568	0.101449160901
1	1517	14.883110469469	0.006987275832
1	1520	14.890097745301	0.007980780499
1	1528	14.8980785258	0.016345642871
1	1533	14.914424168671	0.031148236411
1	1538	14.945572405082	0.008929800921
1	1543	14.954502206003	0.091927497898
1	1548	15.046429703901	0.014642550264
1	1553	15.061072254165	0.071904917032
1	1559	15.132977171197	0.123121655288
1	1565	15.256098826485	0.036895296823
1	1570	15.292994123308	0.017667776583
1	1575	15.310661899891	0.085989950544
1	1581	15.396651850435	0.014329503863
1	1586	15.410981354298	0.053059203131
1	1591	15.464040557429	0.036970635624
1	1597	15.501011193053	0.114598898553
1	1603	15.615610091606	0.017870889997
1	1608	15.633480981603	0.035017807282
1	1613	15.668498788885	0.001088562244
1	1615	15.669587351129	0.058550717477
1	1625	15.728138068606	0.029294721145
1	1630	15.757432789751	0.050705932401
1	1636	15.808138722152	0.013997502769
1	1641	15.822136224921	0.141655045613
1	1647	15.963791270534	0.043613827391
1	1652	16.007405097925	7.6060543e-05
1	1654	16.007481158468	0.021603486077
1	1662	16.029084644545	0.027887873074
1	1667	16.056972517619	0.014589766554
1	1672	16.071562284173	0.018986138704
1	1677	16.090548422877	0.022799191437
1	1682	16.113347614314	0.113241727014
1	1687	16.226589341328	0.034535121863
1	1693	16.261124463191	0.012912268675
1	1698	16.274036731866	0.010249245976
1	1703	16.284285977842	0.022993612741
1	1708	16.307279590583	0.012950825844
1	1713	16.320230416427	0.015013333363
1	1718	16.33524374979	0.015969517693
1	1723	16.351213267483	0.000915577089
1	1725	16.352128844572	0.018698685406
1	1733	16.370827529978	0.095655812122
1	1738	16.4664833421	0.035537970765
1	1743	16.502021312865	0.037531162667
1	1748	16.539552475532	0.004814968905
1	1750	16.544367444437	0.085234941225
1	1761	16.629602385662	0.007839675434
1	1766	16.637442061096	0.054005667193
1	1774	16.691447728289	0.015008899039
1	1779	16.706456627328	0.019057033016
1	1784	16.725513660344	0.009880078265
1	1789	16.735393738609	0.007917851571
1	1795	16.74331159018	0.219270182365
1	1802	16.962581772545	0.000904595556
1	1804	16.963486368101	0.041890457863
1	1812	17.005376825964	0.113514908358
1	1818	17.118891734322	0.015102718513
1	1823	17.133994452835	0.051324234689
1	1828	17.185318687524	0.048065268057
1	1833	17.233383955581	0.029624687398
1	1838	17.263008642979	0.091412881594
1	1843	17.354421524573	0.0414647206
1	1848	17.395886245173	0.100750226975
1	1854	17.496636472148	0.05790910451
1	1859	17.554545576658	0.179294648942
1	1866	17.7338402256	0.000707846342
1	1868	17.734548071942	0.00402743784
1	1870	17.738575509782	0.003700627612
1	1875	17.742276137394	0.036187897307
1	1886	17.778464034701	0.069794465282
1	1891	17.848258499983	0.002547922247
1	1893	17.85080642223	0.08061808709
1	1902	17.93142450932	0.120811233354
1	1908	18.052235742674	0.063577797366
1	1914	18.11581354004	0.053760207326
1	1919	18.169573747366	0.055702174285
1	1924	18.225275921651	0.005915111624
1	1926	18.231191033275	0.113526121992
1	1936	18.344717155267	0.069119577999
1	1941	18.413836733266	0.127004519878
1	1948	18.540841253144	0.038705392557
1	1953	18.579546645701	0.071206662739
1	1958	18.65075330844	0.000795680101
1	1960	18.651548988541	0.04109998302
1	1968	18.692648971561	0.003735313783
1	1970	18.696384285344	0.067634530646
1	1978	18.76401881599	0.051578700392
1	1983	18.815597516382	0.042329821629
1	1988	18.857927338011	0.058634182062
1	1993	18.916561520073	0.001273828364
1	1995	18.917835348437	0.033141544856
1	2003	18.950976893293	0.028896830984
1	2008	18.979873724277	0.124829895514
1	2014	19.104703619791	0.030975964646
1	2019	19.135679584437	0.065886076056
1	2024	19.201565660493	0.029289035749
1	2030	19.230854696242	0.012734959855
1	2035	19.243589656097	0.011795043814
1	2040	19.255384699911	0.0285152189
1	2045	19.283899918811	0.011079220791
1	2050	19.294979139602	0.034137247377
1	2056	19.329116386979	0.20365616184
1	2062	19.532772548819	0.22367687121
1	2069	19.756449420029	0.097660654146
1	2075	19.854110074175	0.004266611885
1	2077	19.85837668606	0.015729748324
1	2085	19.874106434384	0.035002965144
1	2090	19.909109399528	1.654037e-05
1	2092	19.909125939898	0.006482428904
1	2094	19.915608368802	0.10827320713
1	2107	20.023881575932	0.008677629828
1	2112	20.03255920576	0.05620145073
1	2117	20.08876065649	0.017417181338
1	2122	20.106177837828	0.106789297153
1	2128	20.212967134981	0.123963537557
1	2133	20.336930672538	0.056478247646
1	2139	20.393408920184	0.022051945868
1	2145	20.415460866052	0.01724598938
1	2150	20.432706855432	0.003171725968
1	2152	20.4358785814	0.022851521027
1	2162	20.458730102427	0.003025744359
1	2164	20.461755846786	0.050548311657
1	2172	20.512304158443	0.008508849228
1	2178	20.520813007671	0.041629657743
1	2183	20.562442665414	0.01124448195
1	2188	20.573687147364	0.008884377992
1	2193	20.582571525356	0.041328751545
1	2198	20.623900276901	0.164290981508
1	2204	20.788191258409	0.016612930344
1	2209	20.804804188753	0.009105176845
1	2214	20.813909365598	0.095396683583
1	2220	20.909306049181	0.043357979478
1	2225	20.952664028659	0.026179587174
1	2230	20.978843615833	0.026496696976
1	2236	21.005340312809	0.010531736635
1	2241	21.015872049444	0.002460587544
1	2243	21.018332636988	0.025512645121
1	2251	21.043845282109	0.127693348192
1	2257	21.171538630301	0.066836969788
1	2262	21.238375600089	0.044286052746
1	2267	21.282661652835	0.104868735241
1	2272	21.387530388076	0.003010233574
1	2274	21.39054062165	0.022975619262
1	2282	21.413516240912	0.04940340328
1	2287	21.462919644192	0.188629577144
1	2293	21.651549221336	0.003151942224
1	2295	21.65470116356	0.146845748273
1	2304	21.801546911833	0.012023757189
1	2309	21.813570669022	0.024355088932
1	2315	21.837925757954	0.034345455931
1	2321	21.872271213885	0.038524108635
1	2327	21.91079532252	0.033618704063
1	2332	21.944414026583	0.072866406934
1	2338	22.017280433517	0.226983628027
1	2345	22.244264061544	0.048549859076
1	2350	22.29281392062	0.040680628854
1	2355	22.333494549474	0.088729091378
1	2360	22.422223640852	0.033006741456
1	2366	22.455230382308	0.01125885394
1	2371	22.466489236248	0.080820384938
1	2376	22.547309621186	0.050749779446
1	2381	22.598059400632	0.103021778839
1	2388	22.701081179471	0.025183455033
1	2393	22.726264634504	0.010947190893
1	2399	22.737211825397	0.239646035959
1	2410	22.976857861356	0.001761098044
1	2412	22.9786189594	0.025279942749
1	2420	23.003898902149	0.061473778313
1	2425	23.065372680462	0.022266251592
1	2430	23.087638932054	0.059110704025
1	2435	23.146749636079	0.047132886306
1	2441	23.193882522385	0.03555610236
1	2446	23.229438624745	0.079811573804
1	2451	23.309250198549	0.000687155383
1	2453	23.309937353932	0.071261428478
1	2461	23.38119878241	0.03993801706
1	2466	23.42113679947	0.00967379269
1	2471	23.43081059216	0.094207021357
1	2476	23.525017613517	0.054283029159
1	2482	23.579300642676	0.037417898893
1	2487	23.616718541569	0.043138800044
1	2493	23.659857341613	0.226019804364
1	2499	23.885877145977	0.034564026877
1	2504	23.920441172854	0.000725897867
1	2506	23.921167070721	0.000654835791
1	2508	23.921821906512	0.017824376312
1	2516	23.939646282824	0.087473434661
1	2524	24.027119717485	0.107245252894
1	2531	24.134364970379	0.192144132051
1	2536	24.32650910243	0.165435708149
1	2541	24.491944810579	0.099346304523
1	2547	24.591291115102	0.087154333581
1	2554	24.678445448683	0.025034364327
1	2559	24.70347981301	0.008931005112
1	2564	24.712410818122	0.001095263048
1	2566	24.71350608117	0.010539260575
1	2571	24.724045341745	0.054546991686
1	2580	24.778592333431	0.098687719949
1	2585	24.87728005338	0.032638447464
1	2590	24.909918500844	0.077291310533
1	2595	24.987209811377	0.033009354474
1	2600	25.020219165851	0.020636569112
1	2605	25.040855734963	0.078618968845
1	2610	25.119474703808	0.005416926814
1	2612	25.124891630622	0.079341969378
1	2620	25.2042336	0.01633108554
1	2625	25.22056468554	0.0709808936
1	2630	25.29154557914	0.038404164162
1	2636	25.329949743302	0.013464086214
1	2641	25.343413829516	0.038510262485
1	2646	25.381924092001	0.026149304121
1	2651	25.408073396122	0.139359731614
1	2656	25.547433127736	0.059666357922
1	2661	25.607099485658	0.055477772142
1	2666	25.6625772578	0.00086415022
1	2668	25.66344140802	0.213304255009
1	2676	25.876745663029	0.05181355407
1	2681	25.928559217099	0.036834305326
1	2687	25.965393522425	0.004071763256
1	2689	25.969465285681	0.04703370102
1	2697	26.016498986701	0.010745853003
1	2702	26.027244839704	0.009836081739
1	2707	26.037080921443	0.008705970011
1	2713	26.045786891454	0.010578113102
1	2718	26.056365004556	0.03541298228
1	2723	26.091777986836	0.062764788635
1	2728	26.154542775471	0.002575419027
1	2730	26.157118194498	0.005678619534
1	2735	26.162796814032	0.129175898557
1	2743	26.291972712589	0.010913028057
1	2748	26.302885740646	0.000324139835
1	2750	26.303209880481	0.027451945524
1	2759	26.330661826005	0.108910485689
1	2765	26.439572311694	0.007146193756
1	2767	26.44671850545	0.039261734244
1	2775	26.485980239694	0.008000651494
1	2780	26.493980891188	0.176587637485
1	2786	26.670568528673	0.017942469273
1	2791	26.688510997946	0.02003410718
1	2796	26.708545105126	0.014941591023
1	2801	26.723486696149	0.04237489363
1	2806	26.765861589779	0.006764892324
1	2808	26.772626482103	0.007993337995
1	2813	26.780619820098	0.070057007839
1	2821	26.850676827937	0.038983762299
1	2826	26.889660590236	0.021119573498
1	2832	26.910780163734	0.001770153657
1	2834	26.912550317391	0.024369747045
1	2842	26.936920064436	0.006314583806
1	2844	26.943234648242	0.050755122699
1	2852	26.993989770941	0.014181397163
1	2858	27.008171168104	0.039798063823
1	2863	27.047969231927	0.08889849375
1	2869	27.136867725677	0.009125061705
1	2874	27.145992787382	0.07916743152
1	2880	27.225160218902	0.061679338177
1	2885	27.286839557079	0.093447704177
1	2892	27.380287261256	0.045394712243
1	2897	27.425681973499	0.001394990363
1	2899	27.427076963862	0.005144372208
1	2901	27.43222133607	0.017832943974
1	2912	27.450054280044	0.04091016268
1	2917	27.490964442724	0.066807127765
1	2923	27.557771570489	0.015358471647
1	2928	27.573130042136	0.006576789648
1	2930	27.579706831784	0.027665382437
1	2940	27.607372214221	0.002673612861
1	2942	27.610045827082	0.030802280891
1	2950	27.640848107973	0.098516584974
1	2955	27.739364692947	0.142781036568
1	2961	27.882145729515	0.141706984426
1	2966	28.023852713941	0.007312647462
1	2968	28.031165361403	0.018179755445
1	2976	28.049345116848	0.044193723038
1	2981	28.093538839886	0.008356891167
1	2986	28.101895731053	0.137435098534
1	2992	28.239330829587	0.000410644153
1	2994	28.23974147374	0.076546341465
1	3002	28.316287815205	0.015702457643
1	3007	28.331990272848	0.029380162591
1	3012	28.361370435439	0.032379631306
1	3018	28.393750066745	0.014136031271
1	3023	28.407886098016	0.016681967107
1	3028	28.424568065123	0.029574404798
1	3033	28.454142469921	0.033059057213
1	3038	28.487201527134	0.186493405603
1	3043	28.673694932737	0.023665861303
1	3048	28.69736079404	0.010444792946
1	3053	28.707805586986	0.011005589432
1	3058	28.718811176418	0.027048766246
1	3063	28.745859942664	0.06135055494
1	3068	28.807210497604	0.025534176121
1	3074	28.832744673725	0.007637556202
1	3076	28.840382229927	0.05593139345
1	3084	28.896313623377	0.144104907343
1	3090	29.04041853072	0.043424783355
1	3095	29.083843314075	0.037096238187
1	3101	29.120939552262	0.05449725191
1	3106	29.175436804172	0.028674114619
1	3112	29.204110918791	0.011965894753
1	3117	29.216076813544	0.115693868679
1	3122	29.331770682223	0.023478029535
1	3127	29.355248711758	0.071221569712
1	3132	29.42647028147	0.02149636995
1	3137	29.44796665142	0.001062079915
1	3139	29.449028731335	0.1361868938
1	3148	29.585215625135	0.017930336097
1	3153	29.603145961232	0.023459002376
1	3158	29.626604963608	0.007896659553
1	3163	29.634501623161	0.021700001994
1	3168	29.656201625155	0.137625365909
1	3173	29.793826991064	0.028200036645
1	3178	29.822027027709	0.018598404182
1	3183	29.840625431891	0.058763292132
1	3189	29.899388724023	0.029067551256
1	3194	29.928456275279	0.003766018237
1	3196	29.932222293516	0.029752655624
1	3204	29.96197494914	0.133246594476
1	3209	30.095221543616	0.106954308402
1	3215	30.202175852018	0.07356658855
1	3220	30.275742440568	0.024383578348
1	3225	30.300126018916	0.013487972963
1	3230	30.313613991879	0.024607582354
1	3235	30.338221574233	0.003992881972
1	3237	30.342214456205	0.079267861011
1	3245	30.421482317216	0.120758611589
1	3250	30.542240928805	0.068906136122
1	3255	30.611147064927	0.045754825021
1	3260	30.656901889948	0.03925395847
1	3267	30.696155848418	0.013039188339
1	3272	30.709195036757	0.091817270787
1	3277	30.801012307544	0.067333182414
1	3282	30.868345489958	0.014749672645
1	3287	30.883095162603	0.116442370039
1	3293	30.999537532642	0.066553360544
1	3298	31.066090893186	0.043474990062
1	3304	31.109565883248	0.019230938332
1	3309	31.12879682158	0.033774769671
1	3314	31.162571591251	0.015799924397
1	3319	31.178371515648	0.119787384818
1	3324	31.298158900466	0.064045100663
1	3329	31.362204001129	0.264679882921
1	3336	31.62688388405	0.126101929045
1	3342	31.752985813095	0.01109815822
1	3347	31.764083971315	0.003185069357
1	3349	31.767269040672	0.041542196958
1	3357	31.80881123763	0.022457883195
1	3363	31.831269120825	0.215226252324
1	3371	32.046495373149	0.03515924503
1	3376	32.081654618179	0.091726597336
1	3381	32.173381215515	0.046792016665
1	3386	32.22017323218	0.005595468008
1	3388	32.225768700188	0.010906751619
1	3396	32.236675451807	0.015688499678
1	3401	32.252363951485	0.034480458344
1	3406	32.286844409829	0.004169894391
1	3408	32.29101430422	0.147974305861
1	3418	32.438988610081	0.111830847471
1	3424	32.550819457552	0.028931365059
1	3429	32.579750822611	0.06673171055
1	3434	32.646482533161	0.001945211604
1	3436	32.648427744765	0.079814170283
1	3444	32.728241915048	0.012391521872
1	3449	32.74063343692	0.028576903751
1	3454	32.769210340671	0.014208217266
1	3459	32.783418557937	0.024798448657
1	3464	32.808217006594	0.174412959738
1	3470	32.982629966332	0.026765906616
1	3476	33.009395872948	0.00890221299
1	3481	33.018298085938	0.028531019852
1	3486	33.04682910579	0.065558709196
1	3491	33.112387814986	0.018646728412
1	3497	33.131034543398	0.059101299923
1	3503	33.190135843321	0.09392931721
1	3508	33.284065160531	0.022898021154
1	3513	33.306963181685	0.06423066281
1	3518	33.371193844495	0.102458984703
1	3523	33.473652829198	0.034550339973
1	3528	33.508203169171	0.133526497232
1	3534	33.641729666403	0.121955809994
1	3540	33.763685476397	0.082646070851
1	3546	33.846331547248	0.058685741522
1	3551	33.90501728877	0.07905008868
1	3557	33.98406737745	0.032370436458
1	3562	34.016437813908	0.047194919239
1	3567	34.063632733147	0.004534287228
1	3569	34.068167020375	0.039844201815
1	3577	34.10801122219	0.003439783436
1	3579	34.111451005626	0.073169131205
1	3588	34.184620136831	0.026683504421
1	3593	34.211303641252	0.064253210118
1	3599	34.27555685137	0.00669897735
1	3601	34.28225582872	0.051459962154
1	3609	34.333715790874	0.045913359778
1	3614	34.379629150652	0.015136044272
1	3619	34.394765194924	0.002853288127
1	3621	34.397618483051	0.006988129081
1	3626	34.404606612132	0.009384359792
1	3631	34.413990971924	0.005772302565
1	3636	34.419763274489	0.073196538904
1	3646	34.492959813393	0.037367773642
1	3651	34.530327587035	0.087147953015
1	3658	34.61747554005	0.037161251546
1	3663	34.654636791596	0.115107150823
1	3668	34.769743942419	0.028460455239
1	3673	34.798204397658	0.007423691195
1	3675	34.805628088853	0.047211501302
1	3683	34.852839590155	0.049941736424
1	3688	34.902781326579	0.03608040403
1	3694	34.938861730609	0.065031255206
1	3699	35.003892985815	0.034347033292
1	3704	35.038240019107	0.090012369525
1	3709	35.128252388632	0.047583930898
1	3714	35.17583631953	0.116607835207
1	3720	35.292444154737	0.017442683831
1	3725	35.309886838568	0.003955364871
1	3727	35.313842203439	0.090539344537
1	3735	35.404381547976	0.094496197739
1	3740	35.498877745715	0.045736805081
1	3745	35.544614550796	0.06640875087
1	3751	35.611023301666	0.06791018298
1	3757	35.678933484646	0.033722814589
1	3762	35.712656299235	0.050552338604
1	3767	35.763208637839	0.007750198451
1	3772	35.77095883629	0.012823245872
1	3777	35.783782082162	0.015963514923
1	3782	35.799745597085	0.011139619758
1	3787	35.810885216843	0.02059552733
1	3792	35.831480744173	0.176542868812
1	3799	36.008023612985	0.048263501988
1	3804	36.056287114973	0.010025806617
1	3809	36.06631292159	0.040933357526
1	3814	36.107246279116	0.008188083173
1	3819	36.115434362289	0.034664683439
1	3824	36.150099045728	0.060859198624
1	3829	36.210958244352	0.228504537747
1	3838	36.439462782099	0.018579227175
1	3844	36.458042009274	0.025593724634
1	3850	36.483635733908	0.140209246829
1	3857	36.623844980737	0.015295281566
1	3862	36.639140262303	0.084372764964
1	3867	36.723513027267	0.003132176616
1	3869	36.726645203883	0.004391441864
1	3871	36.731036645747	0.003217746431
1	3876	36.734254392178	0.045913942718
1	3887	36.780168334896	0.067143916183
1	3893	36.847312251079	0.043251155466
1	3898	36.890563406545	0.003266298315
1	3900	36.89382970486	0.050517486847
1	3908	36.944347191707	0.022975836245
1	3913	36.967323027952	0.021054829537
1	3919	36.988377857489	0.079674817091
1	3924	37.06805267458	0.044563597769
1	3929	37.112616272349	0.00816696441
1	3935	37.120783236759	0.036801865243
1	3940	37.157585102002	0.022904253051
1	3945	37.180489355053	0.008245996324
1	3950	37.188735351377	0.040870855537
1	3955	37.229606206914	0.010809353639
1	3960	37.240415560553	0.030291022105
1	3966	37.270706582658	0.031309042992
1	3971	37.30201562565	0.005348637332
1	3973	37.307364262982	0.026927069324
1	3981	37.334291332306	0.038932107969
1	3986	37.373223440275	0.069760248839
1	3991	37.442983689114	0.055234238684
1	3996	37.498217927798	0.047404776527
1	4001	37.545622704325	0.042689862743
1	4006	37.588312567068	0.12614431239
1	4013	37.714456879458	0.03260055657
1	4019	37.747057436028	0.029429816981
1	4024	37.776487253009	0.017727089165
1	4029	37.794214342174	0.058124605096
1	4036	37.85233894727	0.032997153967
1	4041	37.885336101237	0.08175309977
1	4046	37.967089201007	0.005193794387
1	4048	37.972282995394	0.016950908459
1	4056	37.989233903853	0.03513717144
1	4061	38.024371075293	0.047827340357
1	4067	38.07219841565	0.122752915695
1	4073	38.194951331345	0.006253071299
1	4075	38.201204402644	0.015992568739
1	4083	38.217196971383	0.043977024701
1	4088	38.261173996084	0.041143836518
1	4093	38.302317832602	0.204264173502
1	4099	38.506582006104	0.034224587111
1	4104	38.540806593215	0.07969852645
1	4110	38.620505119665	0.044683579832
1	4115	38.665188699497	0.006469473275
1	4117	38.671658172772	0.04331119883
1	4125	38.714969371602	0.004099235067
1	4127	38.719068606669	0.018826406961
1	4135	38.73789501363	0.087574620332
1	4140	38.825469633962	0.068076158653
1	4146	38.893545792615	0.077508462352
1	4151	38.971054254967	0.049465395793
1	4156	39.02051965076	0.040665940748
1	4161	39.061185591508	0.134215436437
1	4168	39.195401027945	0.141470511053
1	4177	39.336871538998	0.003869936471
1	4179	39.340741475469	0.049261134935
1	4187	39.390002610404	0.102245473682
1	4192	39.492248084086	0.024682556145
1	4198	39.516930640231	0.025250846434
1	4203	39.542181486665	0.057377645651
1	4209	39.599559132316	0.066063864173
1	4215	39.665622996489	0.03626474356
1	4220	39.701887740049	0.124830009435
1	4225	39.826717749484	0.007532632118
1	4227	39.834250381602	0.042879996199
1	4237	39.877130377801	0.053982849539
1	4243	39.93111322734	0.021406304963
1	4248	39.952519532303	0.003515925552
1	4250	39.956035457855	0.009448846028
1	4255	39.965484303883	0.024499368749
1	4263	39.989983672632	0.062221631999
1	4268	40.052205304631	0.071398001397
1	4274	40.123603306028	0.066633419656
1	4280	40.190236725684	0.03817511383
1	4285	40.228411839514	0.059942210366
1	4290	40.28835404988	0.027048373117
1	4295	40.315402422997	0.0508634664
1	4300	40.366265889397	0.070154491596
1	4306	40.436420380993	0.00740923457
1	4311	40.443829615563	0.118239589371
1	4317	40.562069204934	0.003822189625
1	4319	40.565891394559	0.008032005147
1	4324	40.573923399706	0.041266125568
1	4332	40.615189525274	0.036096948004
1	4337	40.651286473278	0.122854698884
1	4344	40.774141172162	0.12094497764
1	4353	40.895086149802	0.107325026969
1	4358	41.002411176771	0.036563984937
1	4363	41.038975161708	0.072200446168
1	4369	41.111175607876	0.06729581253
1	4375	41.178471420406	0.040902013786
1	4380	41.219373434192	0.028542967897
1	4385	41.247916402089	0.039971755028
1	4391	41.287888157117	0.07264048145
1	4396	41.360528638567	0.025119142482
1	4402	41.385647781049	0.133734147342
1	4409	41.519381928391	0.066845791203
1	4414	41.586227719594	0.017095074961
1	4419	41.603322794555	0.100732466725
1	4425	41.70405526128	0.041742284114
1	4432	41.745797545394	0.008317841559
1	4437	41.754115386953	0.033388655858
1	4443	41.787504042811	0.16192482353
1	4450	41.949428866341	0.013893948754
1	4455	41.963322815095	0.00606742686
1	4457	41.969390241955	0.063417079292
1	4465	42.032807321247	0.027808222039
1	4470	42.060615543286	0.022129641301
1	4475	42.082745184587	0.019345539103
1	4480	42.10209072369	0.024764179679
1	4485	42.126854903369	0.127849391122
1	4490	42.254704294491	0.110898423363
1	4495	42.365602717854	0.066054124556
1	4500	42.43165684241	0.044491165133
1	4505	42.476148007543	0.041748171471
1	4510	42.517896179014	0.005956049679
1	4512	42.523852228693	0.090879813988
1	4522	42.614732042681	0.020969632466
1	4527	42.635701675147	0.002964780937
1	4529	42.638666456084	0.035204612683
1	4538	42.673871068767	0.051374671892
1	4543	42.725245740659	0.013880990801
1	4548	42.73912673146	0.082298757833
1	4553	42.821425489293	0.037798870147
1	4558	42.85922435944	0.03905450828
1	4564	42.89827886772	0.046497445932
1	4570	42.944776313652	0.014999425093
1	4575	42.959775738745	0.067809111563
1	4580	43.027584850308	0.043175589803
1	4587	43.070760440111	0.02411497511
1	4592	43.094875415221	0.0034307522
1	4594	43.098306167421	0.004645145752
1	4599	43.102951313173	0.100366081412
1	4609	43.203317394585	0.001349490113
1	4611	43.204666884698	0.016113368698
1	4619	43.220780253396	0.012210542622
1	4624	43.232990796018	0.025919366202
1	4629	43.25891016222	0.092457292817
1	4634	43.351367455037	0.090210811777
1	4641	43.441578266814	0.08226150542
1	4646	43.523839772234	0.007448920979
1	4651	43.531288693213	0.015916585114
1	4656	43.547205278327	0.062168028672
1	4662	43.609373306999	0.014170413589
1	4667	43.623543720588	0.003403431705
1	4669	43.626947152293	0.002967210772
1	4671	43.629914363065	0.05802891783
1	4682	43.687943280895	0.063198341841
1	4688	43.751141622736	0.1593163091
1	4696	43.910457931836	0.08064576702
1	4701	43.991103698856	0.021032366507
1	4706	44.012136065363	0.055050578668
1	4711	44.067186644031	0.134579193758
1	4718	44.201765837789	0.015585010343
1	4723	44.217350848132	0.036861542657
1	4728	44.254212390789	0.004320768518
1	4730	44.258533159307	0.043313646001
1	4738	44.301846805308	0.027465653258
1	4743	44.329312458566	0.064433251242
1	4748	44.393745709808	0.016254682103
1	4753	44.410000391911	0.071932032947
1	4759	44.481932424858	0.016359164826
1	4764	44.498291589684	0.026981510692
1	4769	44.525273100376	0.010974940418
1	4774	44.536248040794	0.008278717838
1	4779	44.544526758632	0.023775545942
1	4784	44.568302304574	0.010326246862
1	4789	44.578628551436	0.089540627003
1	4795	44.668169178439	0.015564314669
1	4800	44.683733493108	0.029358931964
1	4805	44.713092425072	0.020974201169
1	4810	44.734066626241	0.166652731252
1	4816	44.900719357493	0.04580934286
1	4822	44.946528700353	0.01819612001
1	4828	44.964724820363	0.132114308529
1	4833	45.096839128892	0.188826581289
1	4840	45.285665710181	0.00012388367
1	4842	45.285789593851	0.030884289811
1	4850	45.316673883662	0.036507537325
1	4856	45.353181420987	0.189152110368
1	4862	45.542333531355	0.15771492799
1	4868	45.700048459345	0.061816628537
1	4873	45.761865087882	0.041315603483
1	4878	45.803180691365	0.069356059928
1	4884	45.872536751293	0.006439917364
1	4886	45.878976668657	0.04394285284
1	4894	45.922919521497	0.084395775525
1	4901	46.007315297022	0.078169876123
1	4908	46.085485173145	0.023190531445
1	4913	46.10867570459	0.02059625755
1	4918	46.12927196214	0.025613387636
1	4923	46.154885349776	0.013449817876
1	4928	46.168335167652	0.096089953573
1	4935	46.264425121225	0.024401734281
1	4940	46.288826855506	0.02055596573
1	4945	46.309382821236	0.048480530549
1	4950	46.357863351785	0.003691482627
1	4952	46.361554834412	0.100381941253
1	4961	46.461936775665	0.1493893395
1	4967	46.611326115165	0.030120296443
1	4972	46.641446411608	0.045851371201
1	4978	46.687297782809	0.021545841789
1	4983	46.708843624598	0.024497042146
1	4988	46.733340666744	0.006685328183
1	4990	46.740025994927	0.024595989578
1	4998	46.764621984505	0.071299100018
1	5003	46.835921084523	0.004257769077
1	5005	46.8401788536	0.030997163247
1	5013	46.871176016847	0.07695467059
1	5018	46.948130687437	0.045115004147
1	5024	46.993245691584	0.011091726862
1	5030	47.004337418446	0.0985073938
1	5036	47.102844812246	0.002640847616
1	5038	47.105485659862	0.000352439194
1	5040	47.105838099056	0.014545316627
1	5048	47.120383415683	0.036280121188
1	5056	47.156663536871	0.035586218537
1	5061	47.192249755408	0.001675537965
1	5063	47.193925293373	0.127730484669
1	5072	47.321655778042	0.031458566394
1	5077	47.353114344436	0.072264202699
1	5082	47.425378547135	0.006926476889
1	5084	47.432305024024	0.031892775399
1	5092	47.464197799423	0.014703832855
1	5097	47.478901632278	0.132569896582
1	5103	47.61147152886	0.01645782535
1	5108	47.62792935421	0.06238590173
1	5113	47.69031525594	0.013816249548
1	5118	47.704131505488	0.038645755244
1	5123	47.742777260732	0.019306440622
1	5128	47.762083701354	0.023340808066
1	5133	47.78542450942	0.132695537296
1	5138	47.918120046716	0.14189594081
1	5144	48.060015987526	0.0829493718
1	5149	48.142965359326	0.06127868852
1	5154	48.204244047846	0.066441037325
1	5159	48.270685085171	0.014882208544
1	5164	48.285567293715	0.002893581662
1	5166	48.288460875377	0.071714184751
1	5175	48.360175060128	0.041648588585
1	5181	48.401823648713	0.115594542199
1	5188	48.517418190912	0.019204599319
1	5193	48.536622790231	0.019942026826
1	5198	48.556564817057	0.02462582072
1	5203	48.581190637777	0.013864482534
1	5208	48.595055120311	0.003301107182
1	5210	48.598356227493	0.015813450887
1	5218	48.61416967838	0.044841484697
1	5223	48.659011163077	0.069726767857
1	5228	48.728737930934	0.027863079054
1	5233	48.756601009988	0.035260037175
1	5238	48.791861047163	0.100993379839
1	5244	48.892854427002	0.122318910083
1	5253	49.015173337085	0.019971426976
1	5258	49.035144764061	0.033336244871
1	5263	49.068481008932	0.028159691421
1	5268	49.096640700353	0.078616224265
1	5274	49.175256924618	0.009684567962
1	5279	49.18494149258	0.0330069467
1	5285	49.21794843928	0.092310415206
1	5290	49.310258854486	0.004856474772
1	5292	49.315115329258	0.04088712936
1	5301	49.356002458618	0.001036784244
1	5303	49.357039242862	0.166440586262
1	5311	49.523479829124	0.051667141873
1	5316	49.575146970997	0.026361431046
1	5321	49.601508402043	0.020342770662
1	5326	49.621851172705	0.238596128548
1	5332	49.860447301253	0.013423402546
1	5337	49.873870703799	0.035702739626
1	5342	49.909573443425	0.142755621952
1	5347	50.052329065377	0.402414716201
1	5360	50.454743781578	0.017044615018
1	5365	50.471788396596	0.044457464634
1	5371	50.51624586123	0.060514864541
1	5376	50.576760725771	0.068580955716
1	5382	50.645341681487	0.081560483612
1	5388	50.726902165099	0.059205440967
1	5394	50.786107606066	0.022993314994
1	5399	50.80910092106	0.052774770539
1	5405	50.861875691599	0.028820049651
1	5410	50.89069574125	0.059799882771
1	5415	50.950495624021	0.139835050332
1	5423	51.090330674353	0.010374557925
1	5428	51.100705232278	0.003797025025
1	5431	51.104502257303	0.03903989271
1	5441	51.143542150013	0.006439633275
1	5443	51.149981783288	0.016016662385
1	5451	51.165998445673	0.006053950552
1	5453	51.172052396225	0.006046714478
1	5458	51.178099110703	0.025077694727
1	5466	51.20317680543	0.010153252653
1	5471	51.213330058083	0.011168986891
1	5476	51.224499044974	0.066040616388
1	5481	51.290539661362	0.054722572536
1	5486	51.345262233898	0.009815810259
1	5491	51.355078044157	0.129958527007
1	5498	51.485036571164	0.092748485808
1	5504	51.577785056972	0.028582632127
1	5509	51.606367689099	0.013132057096
1	5515	51.619499746195	0.016900705066
1	5520	51.636400451261	0.004834444593
1	5522	51.641234895854	0.056919623027
1	5531	51.698154518881	0.018566318729
1	5536	51.71672083761	0.007168674746
1	5538	51.723889512356	0.008491203428
1	5546	51.732380715784	0.126382822027
1	5551	51.858763537811	0.032216535685
1	5556	51.890980073496	0.08825036039
1	5562	51.979230433886	0.09737760571
1	5568	52.076608039596	0.021263505526
1	5573	52.097871545122	0.004802431687
1	5575	52.102673976809	0.10164368689
1	5583	52.204317663699	0.056637888794
1	5590	52.260955552493	0.167590155687
1	5595	52.42854570818	0.065954484142
1	5601	52.494500192322	0.008723531776
1	5606	52.503223724098	0.00146734525
1	5608	52.504691069348	0.000983055909
1	5610	52.505674125257	0.063119498491
1	5621	52.568793623748	0.141052934003
1	5628	52.709846557751	0.122766222122
1	5633	52.832612779873	0.012122110355
1	5639	52.844734890228	0.006419145543
1	5641	52.851154035771	0.012070188385
1	5650	52.863224224156	0.070549425294
1	5655	52.93377364945	0.076950689607
1	5660	53.010724339057	0.205206323231
1	5666	53.215930662288	0.012036847217
1	5671	53.227967509505	0.036574786431
1	5676	53.264542295936	0.059615652051
1	5681	53.324157947987	0.05735357284
1	5686	53.381511520827	0.045608219521
1	5691	53.427119740348	0.079771552852
1	5697	53.5068912932	0.027081266386
1	5702	53.533972559586	0.08819558619
1	5709	53.622168145776	0.01765860514
1	5714	53.639826750916	0.034974554147
1	5719	53.674801305063	0.008506367018
1	5724	53.683307672081	0.042400408822
1	5729	53.725708080903	0.063648496078
1	5734	53.789356576981	0.026722147526
1	5740	53.816078724507	0.050401152936
1	5745	53.866479877443	0.027395760519
1	5751	53.893875637962	0.137770685055
1	5757	54.031646323017	0.1036019271
1	5763	54.135248250117	0.007502439526
1	5768	54.142750689643	0.002240185135
1	5770	54.144990874778	0.033808858072
1	5780	54.17879973285	0.028087469242
1	5785	54.206887202092	0.049018902075
1	5790	54.255906104167	0.013226402856
1	5795	54.269132507023	0.031809233391
1	5801	54.300941740414	0.011566696888
1	5806	54.312508437302	0.012190629185
1	5811	54.324699066487	0.007512988498
1	5816	54.332212054985	0.045930858315
1	5821	54.3781429133	0.041453420716
1	5827	54.419596334016	0.297771531198
1	5834	54.717367865214	0.003754922469
1	5836	54.721122787683	0.00718573346
1	5841	54.728308521143	0.01064933526
1	5846	54.738957856403	0.076789919549
1	5854	54.815747775952	0.077670770324
1	5859	54.893418546276	0.057433754738
1	5864	54.950852301014	0.202829218549
1	5869	55.153681519563	0.124309000641
1	5875	55.277990520204	0.011759786056
1	5880	55.28975030626	0.054832971026
1	5885	55.344583277286	0.002002962647
1	5887	55.346586239933	0.045593717342
1	5896	55.392179957275	0.032561715683
1	5901	55.424741672958	0.019282321557
1	5906	55.444023994515	0.021995786036
1	5911	55.466019780551	0.006637334918
1	5913	55.472657115469	0.082174945012
1	5922	55.554832060481	0.025234229821
1	5927	55.580066290302	0.011281569085
1	5932	55.591347859387	0.045965208431
1	5937	55.637313067818	0.083964105546
1	5943	55.721277173364	0.017652603731
1	5948	55.738929777095	0.013853047892
1	5953	55.752782824987	0.031753448767
1	5959	55.784536273754	0.079433761557
1	5965	55.863970035311	0.031299915464
1	5970	55.895269950775	0.006072434338
1	5972	55.901342385113	0.033053942374
1	5980	55.934396327487	0.051182019103
1	5986	55.98557834659	0.093749084982
1	5991	56.079327431572	0.066167773946
1	5996	56.145495205518	0.033115966943
1	6001	56.178611172461	0.039917343182
1	6006	56.218528515643	0.024257381377
1	6012	56.24278589702	0.025059705642
1	6017	56.267845602662	0.003531334554
1	6019	56.271376937216	0.038340851331
1	6027	56.309717788547	0.070851833622
1	6032	56.380569622169	0.059889784885
1	6038	56.440459407054	0.128655796416
1	6045	56.56911520347	0.07843382422
1	6052	56.64754902769	0.000430961002
1	6054	56.647979988692	0.013514682296
1	6059	56.661494670988	0.099905981652
1	6067	56.76140065264	0.043028576834
1	6072	56.804429229474	0.006873148664
1	6074	56.811302378138	0.268162505551
1	6084	57.079464883689	0.020069596606
1	6089	57.099534480295	0.055684983384
1	6094	57.155219463679	0.012146315558
1	6099	57.167365779237	0.016754990242
1	6104	57.184120769479	0.087422598715
1	6110	57.271543368194	0.01866123901
1	6116	57.290204607204	0.023577309277
1	6121	57.313781916481	0.018395570609
1	6126	57.33217748709	0.137919427792
1	6132	57.470096914882	0.011823884379
1	6137	57.481920799261	0.005277044766
1	6139	57.487197844027	0.008851644649
1	6144	57.496049488676	0.065304000268
1	6152	57.561353488944	0.083296375346
1	6158	57.64464986429	0.014776781606
1	6163	57.659426645896	0.05930235608
1	6168	57.718729001976	0.101391073653
1	6173	57.820120075629	0.001392157984
1	6175	57.821512233613	0.083436663045
1	6185	57.904948896658	0.023411443651
1	6190	57.928360340309	0.041532055741
1	6196	57.96989239605	0.000898621795
1	6198	57.970791017845	0.11202426664
1	6207	58.082815284485	0.048833678737
1	6213	58.131648963222	0.020184694186
1	6218	58.151833657408	0.028245839112
1	6223	58.18007949652	0.031086274504
1	6228	58.211165771024	0.045165263569
1	6233	58.256331034593	0.032981248198
1	6238	58.289312282791	0.007020466115
1	6240	58.296332748906	0.108391698535
1	6250	58.404724447441	0.04630027923
1	6257	58.451024726671	0.01078952169
1	6262	58.461814248361	0.010955342792
1	6267	58.472769591153	0.007476978763
1	6270	58.480246569916	0.033749781693
1	6278	58.513996351609	0.040292907609
1	6283	58.554289259218	0.020185454078
1	6288	58.574474713296	0.005575693514
1	6290	58.58005040681	0.033017951892
1	6299	58.613068358702	0.008049831875
1	6304	58.621118190577	0.006262700985
1	6306	58.627380891562	0.122454342705
1	6315	58.749835234267	0.066138609016
1	6320	58.815973843283	0.032857555168
1	6325	58.848831398451	0.089450659764
1	6331	58.938282058215	0.11769413224
1	6338	59.055976190455	0.071420751722
1	6343	59.127396942177	0.058289966077
1	6349	59.185686908254	0.0120062003
1	6354	59.197693108554	0.006920869773
1	6356	59.204613978327	0.037558087875
1	6366	59.242172066202	0.055311510201
1	6371	59.297483576403	0.01293026654
1	6378	59.310413842943	0.038122276899
1	6383	59.348536119842	0.044978361303
1	6388	59.393514481145	0.013975177272
1	6394	59.407489658417	0.017530612715
1	6399	59.425020271132	0.033347123675
1	6404	59.458367394807	0.013475405533
1	6412	59.47184280034	0.046582827517
1	6417	59.518425627857	0.055129714624
1	6422	59.573555342481	0.038508327901
1	6427	59.612063670382	0.020963544072
1	6432	59.633027214454	0.004971231771
1	6434	59.637998446225	0.15086961693
1	6443	59.788868063155	0.021463968757
1	6448	59.810332031912	0.032403311174
1	6453	59.842735343086	0.042389115341
1	6458	59.885124458427	0.00597498039
1	6460	59.891099438817	0.048741014605
1	6470	59.939840453422	0.03100311348
1	6475	59.970843566902	0.089495948883
1	6484	60.060339515785	0.092139717862
1	6489	60.152479233647	0.043582263235
1	6494	60.196061496882	0.035131409644
1	6499	60.231192906526	0.025244793948
1	6504	60.256437700474	0.11247267027
1	6509	60.368910370744	0.13932352399
1	6514	60.508233894734	0.032968105106
1	6519	60.54120199984	0.184013851966
1	6524	60.725215851806	0.007221022218
1	6526	60.732436874024	0.04659871546
1	6534	60.779035589484	0.005202498811
1	6536	60.784238088295	0.026645200852
1	6545	60.810883289147	0.008991166299
1	6550	60.819874455446	0.136935166811
1	6555	60.956809622257	0.010846634271
1	6560	60.967656256528	0.020971824506
1	6565	60.988628081034	0.001919571324
1	6567	60.990547652358	0.053249814982
1	6575	61.04379746734	0.038576213402
1	6580	61.082373680742	0.000167780076
1	6582	61.082541460818	0.058894982859
1	6591	61.141436443677	0.059324266237
1	6596	61.200760709914	0.038893652226
1	6601	61.23965436214	0.062112698867
1	6607	61.301767061007	0.086318663847
1	6614	61.388085724854	0.004836086701
1	6616	61.392921811555	0.008009355851
1	6623	61.400931167406	0.009735042118
1	6628	61.410666209524	0.012208897648
1	6636	61.422875107172	0.02452675102
1	6642	61.447401858192	0.029813111717
1	6647	61.477214969909	0.03033323716
1	6652	61.507548207069	0.07664180509
1	6657	61.584190012159	0.034785234862
1	6662	61.618975247021	0.035240308197
1	6668	61.654215555218	0.080663142175
1	6674	61.734878697393	0.072664371911
1	6679	61.807543069304	0.051000014565
1	6684	61.858543083869	0.06746615182
1	6691	61.926009235689	0.029198905927
1	6696	61.955208141616	0.036213158622
1	6701	61.991421300238	0.051675507325
1	6707	62.043096807563	0.07003029091
1	6712	62.113127098473	0.018431624937
1	6717	62.13155872341	0.032102208207
1	6722	62.163660931617	0.019399497654
1	6727	62.183060429271	0.030898186576
1	6732	62.213958615847	0.009371103648
1	6737	62.223329719495	0.025654680641
1	6743	62.248984400136	0.094113261531
1	6749	62.343097661667	0.022055465099
1	6754	62.365153126766	0.041106480823
1	6759	62.406259607589	0.049554234721
1	6765	62.45581384231	0.066235733148
1	6770	62.522049575458	0.085986549761
1	6775	62.608036125219	0.008786907982
1	6781	62.616823033201	0.057633400368
1	6788	62.674456433569	0.020680753258
1	6793	62.695137186827	0.023261067239
1	6798	62.718398254066	0.127364116704
1	6803	62.84576237077	0.00555030959
1	6805	62.85131268036	0.026342020029
1	6813	62.877654700389	0.089512081033
1	6818	62.967166781422	0.067257644959
1	6823	63.034424426381	0.026230274802
1	6828	63.060654701183	0.049013709274
1	6833	63.109668410457	0.11462216898
1	6839	63.224290579437	0.017172374403
1	6844	63.24146295384	0.051254129219
1	6850	63.292717083059	0.003474630507
1	6852	63.296191713566	0.031527848438
1	6861	63.327719562004	0.014156344921
1	6866	63.341875906925	0.005169801043
1	6868	63.347045707968	0.006528749217
1	6873	63.353574457185	0.077217416021
1	6882	63.430791873206	0.074135745451
1	6887	63.504927618657	0.023001563068
1	6892	63.527929181725	0.036000437669
1	6897	63.563929619394	0.07179128168
1	6903	63.635720901074	0.004818450159
1	6905	63.640539351233	0.005040429477
1	6910	63.64557978071	0.081101964649
1	6918	63.726681745359	0.023636955947
1	6924	63.750318701306	0.003805121927
1	6926	63.754123823233	0.066560903352
1	6934	63.820684726585	0.005377648179
1	6936	63.826062374764	0.002642702361
1	6941	63.828705077125	0.196668703626
1	6951	64.025373780751	0.013893725297
1	6956	64.039267506048	0.046412469505
1	6961	64.085679975553	0.026444259951
1	6966	64.112124235504	0.027857920648
1	6971	64.139982156152	0.121148784913
1	6976	64.261130941065	0.015542022138
1	6981	64.276672963203	0.038230843857
1	6986	64.31490380706	0.003052142158
1	6988	64.317955949218	0.021969346469
1	6996	64.339925295687	0.02561458158
1	7002	64.365539877267	0.159338340891
1	7009	64.524878218158	0.067961477986
1	7015	64.592839696144	0.007360096034
1	7017	64.600199792178	0.121566329017
1	7026	64.721766121195	0.064625286602
1	7031	64.786391407797	0.050331923446
1	7038	64.836723331243	0.065448359502
1	7044	64.902171690745	0.001976179499
1	7046	64.904147870244	0.06223645929
1	7054	64.966384329534	0.007944193104
1	7059	64.974328522638	0.106376463212
1	7065	65.08070498585	0.044832249434
1	7071	65.125537235284	0.085251244461
1	7077	65.210788479745	0.015089601875
1	7082	65.22587808162	0.113075126971
1	7088	65.338953208591	0.067373869664
1	7094	65.406327078255	0.027616857867
1	7099	65.433943936122	0.143425518592
1	7104	65.577369454714	0.16025713777
1	7112	65.737626592484	0.004700371493
1	7114	65.742326963977	0.034535740869
1	7122	65.776862704846	0.066356438875
1	7127	65.843219143721	0.01700374092
1	7132	65.860222884641	0.08876088195
1	7137	65.948983766591	0.048845498112
1	7144	65.997829264703	0.003558165397
1	7146	66.0013874301	0.05035636124
1	7154	66.05174379134	0.031890537641
1	7159	66.083634328981	0.001049356123
1	7161	66.084683685104	0.004228322506
1	7163	66.08891200761	0.042712426725
1	7174	66.131624434335	0.003803515063
1	7176	66.135427949398	0.020208787041
1	7184	66.155636736439	0.005813893991
1	7186	66.16145063043	0.036583860604
1	7194	66.198034491034	0.022034366955
1	7199	66.220068857989	0.066600114487
1	7204	66.286668972476	0.013272336109
1	7209	66.299941308585	0.031710032647
1	7214	66.331651341232	0.021570776742
1	7219	66.353222117974	0.001166180757
1	7221	66.354388298731	0.100124175588
1	7231	66.454512474319	0.001057418001
1	7233	66.45556989232	0.008126884238
1	7238	66.463696776558	0.077156311189
1	7246	66.540853087747	0.00419310907
1	7248	66.545046196817	0.022097322487
1	7256	66.567143519304	0.04567492528
1	7262	66.612818444584	0.096456063464
1	7268	66.709274508048	0.002673491979
1	7270	66.711948000027	0.031967482672
1	7278	66.743915482699	0.064313483582
1	7283	66.808228966281	0.027679451114
1	7289	66.835908417395	0.035933724723
1	7294	66.871842142118	0.011625072957
1	7299	66.883467215075	0.000633249478
1	7301	66.884100464553	0.157245728249
1	7309	67.041346192802	0.100597053767
1	7314	67.141943246569	0.078052125156
1	7320	67.219995371725	0.043049926957
1	7325	67.263045298682	0.04329403775
1	7330	67.306339336432	0.026049020947
1	7335	67.332388357379	0.142051558484
1	7340	67.474439915863	0.039069398912
1	7345	67.513509314775	0.010382255574
1	7350	67.523891570349	0.07881623208
1	7356	67.602707802429	0.081942836981
1	7361	67.68465063941	0.024536233618
1	7366	67.709186873028	0.005452153644
1	7368	67.714639026672	0.071152505134
1	7376	67.785791531806	0.038370349032
1	7381	67.824161880838	0.092038860502
1	7387	67.91620074134	0.006358637876
1	7390	67.922559379216	0.105077450884
1	7398	68.0276368301	0.005869512016
1	7400	68.033506342116	0.029967435598
1	7408	68.063473777714	0.050398344231
1	7413	68.113872121945	0.076625927493
1	7418	68.190498049438	0.000368496009
1	7420	68.190866545447	0.019352112154
1	7428	68.210218657601	0.107403722351
1	7433	68.317622379952	0.019032666278
1	7438	68.33665504623	0.02181982964
1	7443	68.35847487587	0.003634635255
1	7445	68.362109511125	0.072889419865
1	7453	68.43499893099	0.017647901178
1	7458	68.452646832168	0.077847836233
1	7463	68.530494668401	0.025692525089
1	7468	68.55618719349	0.125300618013
1	7474	68.681487811503	0.04729331716
1	7480	68.728781128663	0.007017661637
1	7482	68.7357987903	0.011506383204
1	7490	68.747305173504	0.095206449889
1	7495	68.842511623393	0.029457828589
1	7500	68.871969451982	0.035341632151
1	7505	68.907311084133	0.009615279039
1	7510	68.916926363172	0.068821493584
1	7516	68.985747856756	0.030484773349
1	7522	69.016232630105	0.004928886074
1	7524	69.021161516179	0.047633808711
1	7532	69.06879532489	0.016039441084
1	7537	69.084834765974	0.036091753083
1	7542	69.120926519057	0.008949510005
1	7547	69.129876029062	0.036676818315
1	7552	69.166552847377	0.035923014658
1	7557	69.202475862035	0.03634349129
1	7562	69.238819353325	0.015358139208
1	7567	69.254177492533	0.007101494035
1	7569	69.261278986568	0.022223177443
1	7577	69.283502164011	0.012135215461
1	7583	69.295637379472	0.020602736446
1	7588	69.316240115918	0.039807790892
1	7594	69.35604790681	0.017614089445
1	7600	69.373661996255	0.015242326962
1	7605	69.388904323217	0.106225574443
1	7613	69.49512989766	0.009593164468
1	7618	69.504723062128	0.021296161709
1	7624	69.526019223837	0.004434887973
1	7626	69.53045411181	0.000100064141
1	7628	69.530554175951	0.06468284731
1	7640	69.595237023261	0.166136855426
1	7649	69.761373878687	0.069273323146
1	7658	69.830647201833	0.047129855017
1	7664	69.87777705685	0.095953988704
1	7671	69.973731045554	0.024760323076
1	7676	69.99849136863	0.067012183577
1	7681	70.065503552207	0.184951441546
1	7688	70.250454993753	0.041994722035
1	7694	70.292449715788	0.013403312126
1	7699	70.305853027914	0.035495509531
1	7704	70.341348537445	0.011441358116
1	7709	70.352789895561	0.059544033389
1	7715	70.41233392895	0.012556620919
1	7720	70.424890549869	0.011621142936
1	7725	70.436511692805	0.016140433942
1	7730	70.452652126747	0.065256594863
1	7735	70.51790872161	0.07519259692
1	7740	70.59310131853	0.076639965209
1	7745	70.669741283739	0.082754417325
1	7750	70.752495701064	0.023685311469
1	7755	70.776181012533	0.055864425354
1	7761	70.832045437887	0.055514196559
1	7766	70.887559634446	0.006904819904
1	7768	70.89446445435	0.046084193278
1	7777	70.940548647628	0.076785806859
1	7787	71.017334454487	0.070008635103
1	7793	71.08734308959	0.018933991498
1	7798	71.106277081088	0.026008037888
1	7803	71.132285118976	0.091773242523
1	7810	71.224058361499	0.080004791501
1	7815	71.304063153	0.021576074995
1	7820	71.325639227995	0.014214966873
1	7825	71.339854194868	0.202286618604
1	7832	71.542140813472	0.034026866654
1	7837	71.576167680126	0.033775294968
1	7842	71.609942975094	0.048761064572
1	7847	71.658704039666	0.017824900385
1	7852	71.676528940051	0.099450966917
1	7857	71.775979906968	0.158816008043
1	7863	71.934795915011	0.042262267338
1	7869	71.977058182349	0.047547817906
1	7874	72.024606000255	0.040775542265
1	7879	72.06538154252	0.245302724565
1	7885	72.310684267085	0.094992455575
1	7891	72.40567672266	0.002174743017
1	7893	72.407851465677	0.04096806411
1	7901	72.448819529787	0.038742830216
1	7907	72.487562360003	0.00118965523
1	7909	72.488752015233	0.031258091576
1	7917	72.520010106809	0.013448499711
1	7923	72.53345860652	0.013664496552
1	7928	72.547123103072	0.129822806756
1	7933	72.676945909828	0.02445919853
1	7938	72.701405108358	0.009813638676
1	7943	72.711218747034	0.002312387848
1	7945	72.713531134882	0.046269744516
1	7953	72.759800879398	0.093682377447
1	7961	72.853483256845	0.005075149917
1	7963	72.858558406762	0.072544002675
1	7971	72.931102409437	0.06757608683
1	7976	72.998678496267	0.018711734992
1	7981	73.017390231259	0.024035409163
1	7986	73.041425640422	0.011612796948
1	7991	73.05303843737	0.019507721576
1	7996	73.072546158946	0.00864156799
1	8001	73.081187726936	0.012232014193
1	8006	73.093419741129	0.028816191637
1	8011	73.122235932766	0.05084443048
1	8016	73.173080363246	0.019021594387
1	8022	73.192101957633	0.052860892295
1	8027	73.244962849928	0.029254594313
1	8033	73.274217444241	0.157505896473
1	8040	73.431723340714	0.030258263906
1	8046	73.46198160462	0.153466119204
1	8052	73.615447723824	0.077755429463
1	8057	73.693203153287	0.011274230261
1	8062	73.704477383548	0.103279683966
1	8068	73.807757067514	0.01716662261
1	8073	73.824923690124	0.118052645619
1	8078	73.942976335743	0.046045399767
1	8083	73.98902173551	0.003815810484
1	8085	73.992837545994	0.084963001008
1	8095	74.077800547002	0.069628964136
1	8101	74.147429511138	0.000773979398
1	8103	74.148203490536	0.037216064388
1	8111	74.185419554924	0.126459514145
1	8118	74.311879069069	0.063579095744
1	8124	74.375458164813	0.038236705402
1	8129	74.413694870215	0.084306273493
1	8137	74.498001143708	0.07660146002
1	8142	74.574602603728	0.143734708036
1	8148	74.718337311764	0.030953907529
1	8153	74.749291219293	0.104576062845
1	8158	74.853867282138	0.063043042255
1	8163	74.916910324393	0.011330456715
1	8168	74.928240781108	0.009718828851
1	8173	74.937959609959	0.006671882837
1	8175	74.944631492796	0.133269138312
1	8183	75.077900631108	0.000127932918
1	8185	75.078028564026	0.039320871312
1	8193	75.117349435338	0.098616575246
1	8199	75.215966010584	0.071680762683
1	8204	75.287646773267	0.088520396436
1	8209	75.376167169703	0.074351491908
1	8214	75.450518661611	0.024590152202
1	8219	75.475108813813	0.056129560896
1	8224	75.531238374709	0.001058846291
1	8226	75.532297221	0.014635942409
1	8231	75.546933163409	0.132633935171
1	8239	75.67956709858	0.022603052751
1	8244	75.702170151331	0.00626937729
1	8246	75.708439528621	0.138639580548
1	8254	75.847079109169	0.077525148775
1	8259	75.924604257944	0.168918532865
1	8265	76.093522790809	0.045760307084
1	8270	76.139283097893	0.138197577666
1	8275	76.277480675559	0.066488848569
1	8280	76.343969524128	0.029203168762
1	8285	76.37317269289	0.100057391749
1	8291	76.473230084639	0.005679191128
1	8293	76.478909275767	0.033050481359
1	8301	76.511959757126	0.018778060207
1	8306	76.530737817333	0.003593894012
1	8308	76.534331711345	0.059176358604
1	8317	76.593508069949	0.029421240426
1	8322	76.622929310375	0.004455832681
1	8324	76.627385143056	0.082388954066
1	8333	76.709774097122	0.017639281784
1	8338	76.727413378906	0.033654261111
1	8344	76.761067640017	0.010873264682
1	8349	76.771940904699	0.015115264035
1	8354	76.787056168734	0.011843231679
1	8359	76.798899400413	0.038095169939
1	8365	76.836994570352	0.008509170148
1	8367	76.8455037405	0.087752653736
1	8376	76.933256394236	0.01005240743
1	8381	76.943308801666	0.014771145488
1	8386	76.958079947154	0.022364647596
1	8391	76.98044459475	0.007257143533
1	8393	76.987701738283	0.013280138982
1	8401	77.000981877265	0.028514700118
1	8406	77.029496577383	0.014710390662
1	8411	77.044206968045	0.086609357864
1	8416	77.130816325909	0.054234836129
1	8421	77.185051162038	0.038755837624
1	8426	77.223806999662	0.1057721105
1	8432	77.329579110162	0.099805802202
1	8438	77.429384912364	0.000400709186
1	8440	77.42978562155	0.005420587375
1	8442	77.435206208925	0.000915180022
1	8444	77.436121388947	0.053417643401
1	8459	77.489539032348	0.002644862314
1	8461	77.492183894662	0.055334668054
1	8470	77.547518562716	0.017316043098
1	8475	77.564834605814	0.020543549316
1	8480	77.58537815513	0.002020862474
1	8482	77.587399017604	0.010846744355
1	8487	77.598245761959	0.044949278215
1	8495	77.643195040174	0.01263346467
1	8500	77.655828504844	0.037329885783
1	8505	77.693158390627	0.04659553168
1	8511	77.739753922307	0.119212467314
1	8518	77.858966389621	0.016618362805
1	8523	77.875584752426	0.035786463385
1	8528	77.911371215811	0.088976386163
1	8533	78.000347601974	0.07355007965
1	8539	78.073897681624	0.087180411159
1	8546	78.161078092783	0.124073153653
1	8553	78.285151246436	0.004004752338
1	8555	78.289155998774	0.257746181566
1	8563	78.54690218034	0.010461011467
1	8568	78.557363191807	0.086318203693
1	8574	78.6436813955	0.00507660646
1	8576	78.64875800196	0.025605863856
1	8584	78.674363865816	0.140599616614
1	8592	78.81496348243	0.060369024926
1	8597	78.875332507356	0.011062977323
1	8602	78.886395484679	0.056405567914
1	8608	78.942801052593	0.024725991484
1	8613	78.967527044077	4.377885e-06
1	8615	78.967531421962	0.034720698564
1	8624	79.002252120526	0.001619679996
1	8626	79.003871800522	0.153973502669
1	8636	79.157845303191	0.052496447499
1	8641	79.21034175069	0.037681464338
1	8646	79.248023215028	0.066990911262
1	8651	79.31501412629	0.044919952141
1	8656	79.359934078431	0.002211742741
1	8658	79.362145821172	0.087796313338
1	8666	79.44994213451	0.013866540826
1	8671	79.463808675336	0.009724940709
1	8676	79.473533616045	0.049140829195
1	8681	79.52267444524	0.019125233813
1	8686	79.541799679053	0.123051435671
1	8694	79.664851114724	0.028648518992
1	8699	79.693499633716	0.059130982647
1	8704	79.752630616363	0.044394197334
1	8709	79.797024813697	0.006350207038
1	8711	79.803375020735	0.028778084214
1	8719	79.832153104949	0.042369738332
1	8724	79.874522843281	0.003269048715
1	8726	79.877791891996	0.012280866073
1	8734	79.890072758069	0.023085082464
1	8739	79.913157840533	0.003912855317
1	8741	79.91707069585	0.001609715974
1	8743	79.918680411824	0.088513809619
1	8754	80.007194221443	0.087656835746
1	8762	80.094851057189	0.005796115091
1	8765	80.10064717228	0.066326086008
1	8774	80.166973258288	0.006648366549
1	8776	80.173621624837	0.296614862894
1	8786	80.470236487731	0.026444865855
1	8791	80.496681353586	0.003866417749
1	8793	80.500547771335	0.002776253302
1	8795	80.503324024637	0.062995733946
1	8806	80.566319758583	0.031997604241
1	8812	80.598317362824	0.068030538348
1	8817	80.666347901172	0.048481387086
1	8823	80.714829288258	0.087654301926
1	8829	80.802483590184	0.023294631072
1	8834	80.825778221256	0.001015840875
1	8836	80.826794062131	0.071145359794
1	8845	80.897939421925	0.164800365535
1	8853	81.06273978746	0.074635199715
1	8858	81.137374987175	0.018704191551
1	8863	81.156079178726	0.040853903567
1	8869	81.196933082293	0.100264203175
1	8874	81.297197285468	0.032302639817
1	8879	81.329499925285	0.017850834933
1	8884	81.347350760218	0.007566856893
1	8886	81.354917617111	0.005845500048
1	8891	81.360763117159	0.008062870267
1	8896	81.368825987426	0.050593569719
1	8906	81.419419557145	0.013150402231
1	8911	81.432569959376	0.2555537801
1	8916	81.688123739476	0.017470561094
1	8921	81.70559430057	0.035315914275
1	8926	81.740910214845	0.037055857421
1	8931	81.777966072266	0.297108199227
1	8936	82.075074271493	0.211287788708
1	8942	82.286362060201	0.013264871535
1	8947	82.299626931736	0.032924509817
1	8953	82.332551441553	0.02792220888
1	8958	82.360473650433	0.094894235991
1	8964	82.455367886424	0.012082852811
1	8969	82.467450739235	0.009801488754
1	8974	82.477252227989	0.007373073961
1	8976	82.48462530195	0.029653318694
1	8984	82.514278620644	0.045502416639
1	8989	82.559781037283	0.054596378634
1	8994	82.614377415917	0.015892254958
1	8999	82.630269670875	0.019314064517
1	9004	82.649583735392	0.10317730833
1	9011	82.752761043722	0.083249929959
1	9017	82.836010973681	0.079502921818
1	9022	82.915513895499	0.023589689901
1	9027	82.9391035854	0.052217087587
1	9032	82.991320672987	0.03757525407
1	9037	83.028895927057	0.098629702008
1	9043	83.127525629065	0.078279342417
1	9048	83.205804971482	0.021748555478
1	9053	83.22755352696	0.013129687557
1	9058	83.240683214517	0.003930894469
1	9060	83.244614108986	0.095880943209
1	9068	83.340495052195	0.102941324716
1	9075	83.443436376911	0.060740687869
1	9081	83.50417706478	0.107669226072
1	9086	83.611846290852	0.021136415401
1	9091	83.632982706253	0.03174091966
1	9096	83.664723625913	0.041612678663
1	9101	83.706336304576	0.035257661909
1	9106	83.741593966485	0.090665073811
1	9113	83.832259040296	0.013086925132
1	9118	83.845345965428	0.042548154729
1	9123	83.887894120157	0.012578791858
1	9129	83.900472912015	0.058466056246
1	9135	83.958938968261	0.005056607831
1	9137	83.963995576092	0.011366983453
1	9145	83.975362559545	0.051590483082
1	9150	84.026953042627	0.021706045115
1	9155	84.048659087742	0.002317256761
1	9157	84.050976344503	0.062042991189
1	9165	84.113019335692	0.000681955711
1	9167	84.113701291403	0.000727085354
1	9169	84.114428376757	0.05910182104
1	9180	84.173530197797	0.027901526358
1	9185	84.201431724155	0.006116250559
1	9187	84.207547974714	0.018301564195
1	9195	84.225849538909	0.028352696044
1	9200	84.254202234953	0.099556015792
1	9206	84.353758250745	0.072164770557
1	9211	84.425923021302	0.102012334592
1	9216	84.527935355894	0.022634131067
1	9221	84.550569486961	0.019818377217
1	9226	84.570387864178	0.037521724904
1	9231	84.607909589082	0.000567742068
1	9233	84.60847733115	0.026718802699
1	9242	84.635196133849	0.004889037098
1	9244	84.640085170947	0.043642206128
1	9252	84.683727377075	0.038805332117
1	9257	84.722532709192	0.011759801948
1	9262	84.73429251114	0.008470190835
1	9267	84.742762701975	0.047332515596
1	9273	84.790095217571	0.021978572622
1	9279	84.812073790193	0.080836886195
1	9284	84.892910676388	0.004901036541
1	9286	84.897811712929	0.033119905661
1	9294	84.93093161859	0.052899752469
1	9299	84.983831371059	0.04759756586
1	9304	85.031428936919	0.030370182382
1	9309	85.061799119301	0.015881587148
1	9314	85.077680706449	0.018305870505
1	9319	85.095986576954	0.102365574661
1	9326	85.198352151615	0.042711611173
1	9332	85.241063762788	0.046786883902
1	9337	85.28785064669	0.056478278013
1	9342	85.344328924703	0.015381368667
1	9347	85.35971029337	0.033949835808
1	9352	85.393660129178	0.014945210214
1	9357	85.408605339392	0.029198598855
1	9362	85.437803938247	0.040276759399
1	9367	85.478080697646	0.022917444494
1	9372	85.50099814214	0.001326776414
1	9374	85.502324918554	0.004259731496
1	9376	85.50658465005	0.111517132663
1	9390	85.618101782713	0.020124332365
1	9395	85.638226115078	0.025586978268
1	9400	85.663813093346	0.034237873333
1	9405	85.698050966679	0.00637493492
1	9407	85.704425901599	0.011584943093
1	9415	85.716010844692	0.056890587262
1	9420	85.772901431954	0.043370420084
1	9425	85.816271852038	0.146400605664
1	9430	85.962672457702	0.174354052984
1	9436	86.137026510686	0.136914364826
1	9444	86.273940875512	0.146619355966
1	9450	86.420560231478	0.007344112935
1	9452	86.427904344413	0.013590826105
1	9460	86.441495170518	0.03737328157
1	9465	86.478868452088	0.054465536625
1	9471	86.533333988713	0.303468912608
1	9477	86.836802901321	0.026768994879
1	9482	86.8635718962	0.013211301244
1	9487	86.876783197444	0.025480352895
1	9492	86.902263550339	0.025988538048
1	9497	86.928252088387	0.036624032284
1	9503	86.964876120671	0.013985208612
1	9508	86.978861329283	0.085012941594
1	9514	87.063874270877	0.02105186872
1	9519	87.084926139597	0.012361879377
1	9524	87.097288018974	0.051410611534
1	9529	87.148698630508	0.133706855189
1	9536	87.282405485697	0.026248275645
1	9543	87.308653761342	0.070806974631
1	9548	87.379460735973	0.020491608425
1	9553	87.399952344398	0.068885011854
1	9558	87.468837356252	0.029510180044
1	9563	87.498347536296	0.053945266688
1	9569	87.552292802984	0.009803400113
1	9574	87.562096203097	0.009215649271
1	9579	87.571311852368	0.00305369762
1	9581	87.574365549988	0.078926784363
1	9590	87.653292334351	0.000857046392
1	9592	87.654149380743	0.062604438894
1	9600	87.716753819637	0.00458188073
1	9602	87.721335700367	0.002323348329
1	9604	87.723659048696	0.21741820336
1	9618	87.941077252056	0.264794827722
1	9625	88.205872079778	0.051226885216
1	9630	88.257098964994	0.013681607711
1	9635	88.270780572705	0.036538448079
1	9640	88.307319020784	0.083280727357
1	9647	88.390599748141	0.024180199806
1	9652	88.414779947947	0.103243419466
1	9657	88.518023367413	0.007794755681
1	9662	88.525818123094	0.118987097397
1	9669	88.644805220491	0.193567220008
1	9674	88.838372440499	0.032270500171
1	9679	88.87064294067	0.107294918885
1	9686	88.977937859555	0.013281410794
1	9691	88.991219270349	0.013978930632
1	9696	89.005198200981	0.289920577661
1	9703	89.295118778642	0.011131265469
1	9708	89.306250044111	0.050023075349
1	9713	89.35627311946	0.031268836313
1	9718	89.387541955773	0.123209521473
1	9724	89.510751477246	0.007723184458
1	9730	89.518474661704	0.209143075017
1	9736	89.727617736721	0.083176690327
1	9741	89.810794427048	0.023594718846
1	9746	89.834389145894	0.042886693029
1	9751	89.877275838923	0.016008007125
1	9756	89.893283846048	0.065526110169
1	9762	89.958809956217	0.006067052823
1	9764	89.96487700904	0.042892955119
1	9772	90.007769964159	0.075819511087
1	9778	90.083589475246	0.022810661265
1	9783	90.106400136511	0.007048309629
1	9785	90.11344844614	0.034584046446
1	9793	90.148032492586	0.020115646497
1	9798	90.168148139083	0.010852506243
1	9803	90.179000645326	0.02686029731
1	9808	90.205860942636	0.095072956162
1	9814	90.300933898798	0.037947538585
1	9819	90.338881437383	0.033732738406
1	9824	90.372614175789	0.051782474266
1	9829	90.424396650055	0.209407487152
1	9837	90.633804137207	0.007369483032
1	9839	90.641173620239	0.168207901792
1	9847	90.809381522031	0.016503601071
1	9852	90.825885123102	0.035768834401
1	9857	90.861653957503	0.138533065261
1	9862	91.000187022764	0.008230210289
1	9867	91.008417233053	0.006988130433
1	9869	91.015405363486	0.035058054461
1	9878	91.050463417947	0.009115475371
1	9883	91.059578893318	0.015290103533
1	9888	91.074868996851	0.062747112404
1	9895	91.137616109255	0.043376462679
1	9900	91.180992571934	0.030622446656
1	9905	91.21161501859	0.031705214003
1	9910	91.243320232593	0.058665587206
1	9916	91.301985819799	0.024918432776
1	9922	91.326904252575	0.041109417789
1	9927	91.368013670364	0.005474011232
1	9929	91.373487681596	0.023840214109
1	9937	91.397327895705	0.065958877471
1	9942	91.463286773176	0.000341397455
1	9944	91.463628170631	0.013552442217
1	9949	91.477180612848	0.006175051444
1	9954	91.483355664292	0.045901183952
1	9963	91.529256848244	0.012764745756
1	9968	91.542021594	0.048937403789
1	9974	91.590958997789	0.017568816653
1	9979	91.608527814442	0.219687140744
1	9985	91.828214955186	0.030583219875
1	9990	91.858798175061	0.001246164432
1	9992	91.860044339493	0.023708678658
1	10000	91.883753018151	0.026933632452
1	10005	91.910686650603	0.036334908446
1	10011	91.947021559049	0.009879666974
1	10016	91.956901226023	0.031158389881
1	10023	91.988059615904	0.132271762619
1	10028	92.120331378523	0.034469017837
1	10033	92.15480039636	0.038559101831
1	10038	92.193359498191	0.052354672059
1	10044	92.24571417025	0.130965637365
1	10050	92.376679807615	0.00283880537
1	10052	92.379518612985	0.041739214587
1	10060	92.421257827572	0.001236445441
1	10062	92.422494273013	0.060192974363
1	10070	92.482687247376	0.009183394408
1	10075	92.491870641784	0.025468714182
1	10081	92.517339355966	0.022652478672
1	10086	92.539991834638	0.047175319544
1	10091	92.587167154182	0.017282987563
1	10096	92.604450141745	0.115609935204
1	10102	92.720060076949	0.106544953253
1	10107	92.826605030202	0.022907714045
1	10112	92.849512744247	0.005563182019
1	10114	92.855075926266	0.052774284535
1	10124	92.907850210801	0.012127987596
1	10129	92.919978198397	0.116489188763
1	10135	93.03646738716	0.023969331907
1	10140	93.060436719067	0.027156894824
1	10145	93.087593613891	0.081291192153
1	10151	93.168884806044	0.020750795416
1	10156	93.18963560146	0.041913103979
1	10162	93.231548705439	0.006210930061
1	10164	93.2377596355	0.113585332351
1	10173	93.351344967851	0.00103968011
1	10175	93.352384647961	0.047769328522
1	10184	93.400153976483	0.040689084833
1	10189	93.440843061316	0.098718463006
1	10194	93.539561524322	0.03115878647
1	10199	93.570720310792	0.062036737451
1	10204	93.632757048243	0.001924150211
1	10206	93.634681198454	0.028834517592
1	10214	93.663515716046	0.166025626893
1	10220	93.829541342939	0.029109335778
1	10225	93.858650678717	0.01562421286
1	10230	93.874274891577	0.070123961123
1	10235	93.9443988527	0.018073490693
1	10240	93.962472343393	0.074235630224
1	10246	94.036707973617	0.00746903883
1	10251	94.044177012447	0.002712790036
1	10253	94.046889802483	0.009346502003
1	10259	94.056236304486	0.003698410548
1	10264	94.059934715034	0.076549474151
1	10272	94.136484189185	0.00203822109
1	10274	94.138522410275	0.004427188014
1	10276	94.142949598289	0.002189199156
1	10281	94.145138797445	0.005251292644
1	10283	94.150390090089	0.019121032888
1	10294	94.169511122977	0.038372883993
1	10302	94.20788400697	0.069586730447
1	10309	94.277470737417	0.113787806564
1	10315	94.391258543981	0.021506246313
1	10320	94.412764790294	0.02423504499
1	10325	94.436999835284	0.186998833167
1	10332	94.623998668451	0.080762190082
1	10338	94.704760858533	0.20248790801
1	10345	94.907248766543	0.091240425582
1	10351	94.998489192125	0.023827435476
1	10356	95.022316627601	0.003461962697
1	10358	95.025778590298	0.072106959276
1	10367	95.097885549574	0.045090025305
1	10372	95.142975574879	0.050952494018
1	10378	95.193928068897	0.114769043529
1	10383	95.308697112426	0.022249583499
1	10388	95.330946695925	0.03951843253
1	10393	95.370465128455	0.068385416329
1	10398	95.438850544784	0.005345821989
1	10400	95.444196366773	0.140948974146
1	10411	95.585145340919	0.244911814451
1	10417	95.83005715537	0.161292650069
1	10423	95.991349805439	0.003466363414
1	10425	95.994816168853	0.013089767458
1	10433	96.007905936311	0.046647902606
1	10439	96.054553838917	0.012798462036
1	10444	96.067352300953	0.003216417856
1	10446	96.070568718809	0.013696522482
1	10454	96.084265241291	0.072545986003
1	10459	96.156811227294	0.015523835284
1	10464	96.172335062578	0.003408977488
1	10466	96.175744040066	0.087480183425
1	10474	96.263224223491	0.001982183795
1	10476	96.265206407286	0.116189587715
1	10485	96.381395995001	0.001526478126
1	10487	96.382922473127	0.027312226475
1	10495	96.410234699602	0.014724383676
1	10500	96.424959083278	0.070962803147
1	10506	96.495921886425	0.087680625571
1	10514	96.583602511996	0.025173448016
1	10519	96.608775960012	0.096910226491
1	10525	96.705686186503	0.041778600576
1	10530	96.747464787079	0.027443689733
1	10535	96.774908476812	0.07033577259
1	10541	96.845244249402	0.09674313323
1	10546	96.941987382632	0.085376190724
1	10552	97.027363573356	0.007494557611
1	10554	97.034858130967	0.013621200624
1	10563	97.048479331591	0.063036366019
1	10568	97.11151569761	0.175104109443
1	10577	97.286619807053	0.01427235736
1	10582	97.300892164413	0.067648839407
1	10589	97.36854100382	0.006250027365
1	10591	97.374791031185	0.117455528374
1	10602	97.492246559559	0.174516979368
1	10607	97.666763538927	0.037808190832
1	10612	97.704571729759	0.208894964689
1	10619	97.913466694448	0.023518605486
1	10624	97.936985299934	0.086228252053
1	10629	98.023213551987	0.055658329433
1	10635	98.07887188142	0.079584863707
1	10640	98.158456745127	0.001744621183
1	10642	98.16020136631	0.027089345672
1	10650	98.187290711982	0.073452660374
1	10655	98.260743372356	0.011534474508
1	10660	98.272277846864	0.014693302791
1	10665	98.286971149655	0.169679899595
1	10672	98.45665104925	0.00245243671
1	10674	98.45910348596	0.019724423091
1	10682	98.478827909051	0.016329609642
1	10687	98.495157518693	0.015544616341
1	10692	98.510702135034	0.05208695109
1	10697	98.562789086124	0.078317209985
1	10702	98.641106296109	0.033590624737
1	10707	98.674696920846	0.072458510345
1	10712	98.747155431191	0.023359582485
1	10717	98.770515013676	0.084471029096
1	10723	98.854986042772	0.081414055565
1	10729	98.936400098337	0.0367722454
1	10734	98.973172343737	0.026238401988
1	10739	98.999410745725	0.058925217923
1	10744	99.058335963648	0.017361422529
1	10751	99.075697386177	0.013621157361
1	10757	99.089318543538	0.068731398349
1	10762	99.158049941887	0.057410518459
1	10767	99.215460460346	0.009678968158
1	10772	99.225139428504	0.02930624199
1	10777	99.254445670494	0.014810359481
1	10782	99.269256029975	0.010493438148
1	10788	99.279749468123	0.042329223584
1	10794	99.322078691707	0.112807864917
1	10799	99.434886556624	0.008378137893
1	10801	99.443264694517	0.018701345941
1	10810	99.461966040458	0.052188097571
1	10815	99.514154138029	0.057837691517
1	10820	99.571991829546	0.079954327667
1	10826	99.651946157213	0.086897342139
1	10831	99.738843499352	0.004631211777
1	10833	99.743474711129	0.055284275153
1	10841	99.798758986282	0.154186608802
1	10848	99.952945595084	0.016260517199
1	10853	99.969206112283	0.050938489219
1	10859	100.020144601502	0.032477860573
1	10864	100.052622462075	0.113071939204
1	10869	100.165694401279	0.066154489676
1	10874	100.231848890955	0.040308622447
1	10879	100.272157513402	0.013960799051
1	10884	100.286118312453	0.016862433317
1	10889	100.30298074577	0.044889224585
1	10894	100.347869970355	0.007550829224
1	10896	100.355420799579	0.027391062538
[...]
19	25523	234.130150379023	5.3833287956844
19	26159	239.513479174707	0.32726558339651
19	26178	239.840744758104	6.4179330078608
19	26866	246.258677765965	3.7283056805353
19	27248	249.9869834465	1.6971655281243
19	27456	251.684148974624	1.3266041506768
19	27602	253.010753125301	0.61868977211194
19	27659	253.629442897413	0.88079739971973
19	27708	254.510240297133	0.82945863514838
19	27784	255.339698932281	3.3299266135928
19	28160	258.669625545874	1.4098291434861
19	28320	260.07945468936	2.4846297327003
19	28524	262.56408442206	0.30552703126625
19	28563	262.869611453326	3.6991646818915
19	28905	266.568776135217	1.0748909847646
19	29016	267.643667119982	2.1380013423598
19	29290	269.781668462342	2.0646893689303
19	29467	271.846357831272	0.099215503743731
19	29475	271.945573335016	0.56589175404349
19	29549	272.511465089059	0.80091895186191
19	29633	273.312384040921	2.2535013552795
19	29856	275.565885396201	2.3828806248313
19	30155	277.948766021032	0.28234357524039
19	30206	278.231109596272	0.84464361167475
19	30313	279.075753207947	0.57218418733505
19	30380	279.647937395282	4.1529460428587
19	30919	283.800883438141	0.7668460268904
19	31018	284.567729465031	0.18923259202099
19	31037	284.756962057052	0.23601064791277
19	31061	284.992972704965	0.77723565375147
19	31115	285.770208358716	0.79492591779571
19	31178	286.565134276512	0.20231979630806
19	31205	286.76745407282	7.0211601202384
19	31968	293.788614193058	0.23683678772324
19	31999	294.025450980781	0.041997763257703
19	32000	294.067448744039	0.13750110364455
19	32017	294.204949847684	0.43018292413287
19	32043	294.635132771817	3.0299155975961
19	32331	297.665048369413	0.60261116770663
19	32409	298.26765953712	0.16906709986609
19	32425	298.436726636986	1.1134506975098
19	32564	299.550177334496	1.1847584910731
19	32736	300.734935825569	0.62441638367524
19	32813	301.359352209244	3.4846907340134
19	33234	304.844042943257	0.82266553618935
19	33323	305.666708479446	1.6041661377113
19	33499	307.270874617157	0.51453365996846
19	33529	307.785408277125	1.3161347166904
19	33696	309.101542993815	3.3893002611184
19	34054	312.490843254933	5.9252062773676
19	34692	318.416049532301	7.1221154960923
19	35504	325.538165028393	3.8818878967509
19	35915	329.420052925144	1.3489375042103
19	36028	330.768990429354	1.451265046433
19	36233	332.220255475787	1.148068362656
19	36341	333.368323838443	2.9339112882724
19	36691	336.302235126715	4.0380303691301
19	37064	340.340265495845	1.5631462928885
19	37249	341.903411788734	2.1080843642108
19	37484	344.011496152945	4.8743304000713
19	38084	348.885826553016	2.1026052244381
19	38340	350.988431777454	0.08517918504424
19	38354	351.073610962498	0.58235528057852
19	38422	351.655966243077	0.12187447556432
19	38439	351.777840718641	2.0213162192185
19	38682	353.79915693786	2.2917844806843
19	38978	356.090941418544	1.327414054924
19	39106	357.418355473468	0.87177125471616
19	39254	358.290126728184	3.8485385519
19	39611	362.138665280084	0.61904629832365
19	39668	362.757711578408	0.12528282733207
19	39697	362.88299440574	0.24557250216263
19	39742	363.128566907903	0.044441746750366
19	39753	363.173008654653	3.3963485823385
19	40079	366.569357236992	2.1612152379953
19	40319	368.730572474987	4.4632591122204
19	40774	373.193831587207	1.2548906441122
19	40900	374.448722231319	3.0591674167776
19	41143	377.507889648097	3.5420009372298
19	41597	381.049890585327	0.48765036243829
19	41647	381.537540947765	1.2960502544758
19	41781	382.833591202241	1.3890614615109
19	41960	384.222652663752	0.73679227570288
19	42029	384.959444939455	1.7915382366082
19	42217	386.750983176063	0.54576679351054
19	42298	387.296749969574	0.51104965605433
19	42366	387.807799625628	1.1591785161689
19	42507	388.966978141797	1.9107003216684
19	42727	390.877678463465	2.7258836387536
19	43145	393.603562102219	3.4657978253655
19	43529	397.069359927585	0.010095616673144
19	43533	397.079455544258	1.2534499763752
19	43656	398.332905520633	0.36532124422678
19	43698	398.69822676486	0.65015800500454
19	43769	399.348384769865	2.8806288527948
20	1864	17.668495665867	4.9628737116915
20	2386	22.631369377559	0.26422578228438
20	2406	22.895595159843	0.045337913361252
20	2409	22.940933073204	1.6203886129757
20	2546	24.56132168618	0.064979993878672
20	2552	24.626301680059	4.9174989958178
20	3147	29.543800675877	1.1133261626746
20	3262	30.657126838552	0.33479878194308
20	3292	30.991925620495	0.10548443626658
20	3303	31.097410056762	3.0372259522837
20	3587	34.134636009046	0.29741334354211
20	3644	34.432049352588	0.049701049935986
20	3645	34.481750402524	1.9149459880612
20	3836	36.396696390585	4.7627421773831
20	4374	41.159438567968	0.35705808887697
20	4408	41.516496656845	0.12412498059248
20	4424	41.640621637437	0.069428524049117
20	4427	41.710050161486	1.2173643871805
20	4569	42.927414548666	16.017752075752
20	6333	58.945166624418	3.679245534697
20	6783	62.624412159115	1.349960212816
20	6949	63.974372371931	5.3925712880262
20	7599	69.366943659957	0.23667760390157
20	7646	69.603621263859	3.6551339414226
20	8032	73.258755205282	1.9194839952298
20	8198	75.178239200512	2.3453369873303
20	8469	77.523576187842	2.5636150919874
20	8761	80.087191279829	2.2393677650413
20	8952	82.32655904487	5.3166794417269
20	9589	87.643238486597	0.47302088941511
20	9623	88.116259376012	3.3946591364524
20	9962	91.510918512464	0.47209836416014
20	10022	91.983016876624	0.53000332882569
20	10080	92.51302020545	1.9264129391974
20	10327	94.439433144647	2.3687363355784
20	10540	96.808169480225	0.38229866916877
20	10575	97.190468149394	0.63639954242777
20	10617	97.826867691822	7.80002173203
20	11496	105.626889423852	0.76833515611796
20	11579	106.39522457997	1.9669266857214
20	11817	108.362151265691	0.97120000956827
20	11961	109.333351275259	0.10156983771927
20	11983	109.434921112978	0.026484094787304
20	11990	109.461405207765	3.5095696007064
20	12373	112.970974808471	5.2327760676633
20	12967	118.203750876134	5.2750018442702
20	13580	123.478752720404	0.075934348683122
20	13582	123.554687069087	0.8834117292558
20	13669	124.438098798343	3.784995899649
20	14081	128.223094697992	1.2163062610876
20	14247	129.43940095908	0.31635042188633
20	14283	129.755751380966	2.3950407235715
20	14466	132.150792104537	3.3908754387206
20	14763	135.541667543258	0.44515945088136
20	14848	135.986826994139	3.4691219503443
20	15273	139.455948944483	1.1976920826745
20	15388	140.653641027157	1.9058589583161
20	15662	142.559499985473	1.5070260894842
20	15840	144.066526074957	3.0973273256356
20	16177	147.163853400593	2.8033753473602
20	16434	149.967228747953	0.30497795702363
20	16460	150.272206704977	0.72180850197323
20	16529	150.99401520695	2.0832960055847
20	16755	153.077311212535	0.34821003118019
20	16794	153.425521243715	3.0242113855474
20	17129	156.449732629262	2.8257124771955
20	17442	159.275445106458	1.10527658985
20	17554	160.380721696308	1.4188452670288
20	17676	161.799566963337	1.4127586658358
20	17785	163.212325629173	0.0078883041155311
20	17786	163.220213933289	0.82010480952221
20	17894	164.040318742811	1.1001111169666
20	18030	165.140429859778	0.16817274239945
20	18044	165.308602602177	7.0993015629844
20	18701	172.407904165161	1.8153477671208
20	18906	174.223251932282	3.9897379564863
20	19275	178.212989888768	0.65507915528506
20	19332	178.868069044053	1.7508299429963
20	19537	180.618898987049	1.4394059661121
20	19689	182.058304953161	0.24148051954727
20	19706	182.299785472708	5.1875807305147
20	20334	187.487366203223	0.88765230729203
20	20421	188.375018510515	1.9563525242042
20	20616	190.331371034719	0.73194469498469
20	20692	191.063315729704	0.63923588219608
20	20773	191.7025516119	5.968320050949
20	21376	197.670871662849	2.3372042051173
20	21621	200.008075867966	3.3577601939307
20	22027	203.365836061897	1.0398907775271
20	22129	204.405726839424	0.360175201537
20	22158	204.765902040961	1.6862495251113
20	22346	206.452151566072	0.85034376246268
20	22434	207.302495328535	1.8810209871889
20	22670	209.183516315724	0.059919227363131
20	22678	209.243435543087	3.7949559695724
20	23081	213.038391512659	5.034422758844
20	23577	218.072814271503	0.10383947823139
20	23597	218.176653749734	5.8547397888959
20	24303	224.03139353863	4.6694065081001
20	24855	228.70080004673	1.9128918817837
20	25058	230.613691928514	2.2733432019928
20	25381	232.887035130507	6.4085276543091
20	26136	239.295562784816	1.2396300917582
20	26255	240.535192876574	2.1539883789939
20	26439	242.689181255568	0.35921001685385
20	26499	243.048391272422	0.56850818460918
20	26535	243.616899457031	0.58418005581263
20	26601	244.201079512844	0.14545837304786
20	26612	244.346537885892	1.8565091963424
20	26861	246.203047082234	1.0744410596558
20	26979	247.27748814189	0.19028359056787
20	26997	247.467771732458	0.15445271876729
20	27014	247.622224451225	1.449871608417
20	27161	249.072096059642	2.0988874273244
20	27377	251.170983486966	1.1742902325652
20	27512	252.345273719531	3.339204982886
20	27807	255.684478702417	1.1887324887552
20	27969	256.873211191172	3.1584011764524
20	28316	260.031612367624	4.3161037074183
20	28707	264.347716075042	1.173089168041
20	28819	265.520805243083	2.070237273623
20	29015	267.591042516706	2.3581198187762
20	29313	269.949162335482	3.023984872405
20	29597	272.973147207887	0.54489001083464
20	29644	273.518037218722	1.3342062381434
20	29777	274.852243456865	1.6797961819871
20	29949	276.532039638852	0.056933809823318
20	29962	276.588973448675	0.64256907831701
20	30043	277.231542526992	0.18671221910529
20	30060	277.418254746097	0.47233148379969
20	30144	277.890586229897	0.73954729571435
20	30269	278.630133525611	0.57504087543749
20	30336	279.205174401048	3.2841701077145
20	30746	282.489344508762	3.7227601121715
20	31165	286.212104620934	0.14434792620672
20	31166	286.356452547141	1.3954031207531
20	31302	287.751855667894	1.4849107921728
20	31445	289.236766460067	6.8587886049449
20	32189	296.095555065012	0.087909328586381
20	32191	296.183464393598	4.1465588319194
20	32669	300.330023225517	0.42077690870193
20	32737	300.750800134219	2.0168004174012
20	32983	302.76760055162	3.297912561433
20	33363	306.065513113053	2.0599360698286
20	33566	308.125449182882	0.058113034961603
20	33577	308.183562217844	1.5319647815777
20	33736	309.715526999422	5.2132881100691
20	34358	314.928815109491	1.5532477662968
20	34497	316.482062875788	5.3731550662635
20	35091	321.855217942051	2.4854961808341
20	35373	324.340714122885	1.0722344356302
20	35498	325.412948558515	7.7914770910832
20	36320	333.204425649598	4.829868518957
20	36830	338.034294168555	9.7034776793497
20	37963	347.737771847905	0.79546085243668
20	38039	348.533232700342	0.34562696947098
20	38083	348.878859669813	4.2594488505275
20	38610	353.13830852034	1.2329933206522
20	38782	354.371301840992	0.10954525491232
20	38798	354.480847095904	1.1109796240495
20	38910	355.591826719954	1.2979463619243
20	39072	356.889773081878	5.2660740525024
20	39612	362.15584713438	1.4239979265624
20	39805	363.579845060942	1.6095107335979
20	39974	365.18935579454	1.6862872197346
20	40126	366.875643014275	0.98813963975681
20	40219	367.863782654032	0.99620132897788
20	40331	368.85998398301	0.87002794136629
20	40421	369.730011924376	3.1219428974534
20	40734	372.851954821829	0.23890389147862
20	40761	373.090858713308	4.110779317092
20	41132	377.2016380304	1.0878074702573
20	41227	378.289445500657	0.33501529329624
20	41259	378.624460793953	0.54873913143521
20	41332	379.173199925388	1.1651134386642
20	41526	380.338313364052	1.9778877667974
20	41724	382.316201130849	1.2124886728812
20	41864	383.52868980373	2.8438087610639
20	42147	386.372498564794	6.7673138248165
20	43088	393.13981238961	1.0689520972657
20	43226	394.208764486876	0.44959607712669
20	43287	394.658360564003	1.2251208458156
20	43400	395.883481409819	5.1794650437217
21	1913	18.085468199564	2.0463781269379
21	2127	20.131846326502	0.21502866197994
21	2138	20.346874988482	1.8617781391468
21	2344	22.208653127629	1.369781094516
21	2481	23.578434222145	3.6315482967786
21	2879	27.209982518924	0.89449975688341
21	2988	28.104482275807	0.70981180098848
21	3070	28.814294076795	0.36448611794914
21	3108	29.178780194744	7.0876119482147
21	3835	36.266392142959	0.15232831169683
21	3837	36.418720454656	3.5014498602928
21	4242	39.920170314949	3.8201245088458
21	4687	43.740294823795	2.0682757194522
21	4880	45.808570543247	1.1855101505983
21	5026	46.994080693845	1.3060742398123
21	5171	48.300154933657	0.67909198912199
21	5252	48.979246922779	1.0893414084731
21	5352	50.068588331252	1.6029747637529
21	5530	51.671563095005	2.4138882788184
21	5762	54.085451373823	1.4231410179957
21	5921	55.508592391819	2.9056268129276
21	6255	58.414219204747	0.025632085840465
21	6256	58.439851290587	0.86487753970956
21	6373	59.304728830297	1.9385438027766
21	6603	61.243272633074	3.2245328064555
21	7008	64.467805439529	0.66065254924394
21	7073	65.128457988773	1.4787840304026
21	7261	66.607242019176	0.012640672425268
21	7264	66.619882691601	2.6701381014034
21	7579	69.290020793004	0.14552314282499
21	7611	69.435543935829	1.5078876311382
21	7779	70.943431566967	0.069912855182802
21	7786	71.01334442215	2.2929117307299
21	8038	73.30625615288	4.4277689878445
21	8510	77.734025140724	1.3962158850892
21	8635	79.130241025813	1.9017161140286
21	8851	81.031957139842	5.3133923826637
21	9449	86.345349522506	0.95154816098917
21	9542	87.296897683495	0.89475634422654
21	9624	88.191654027722	1.0322878423816
21	9702	89.223941870104	1.8050210639943
21	9877	91.028962934098	0.89987243284071
21	10010	91.928835366939	1.4486608573333
21	10183	93.377496224272	1.4305667232747
21	10344	94.808062947547	0.67794182528764
21	10409	95.486004772835	6.3958174898266
21	11086	101.881822262662	2.2857966740143
21	11338	104.167618936676	5.2437521282179
21	11977	109.411371064894	0.4088849087055
21	12033	109.8202559736	0.77551324511176
21	12133	110.595769218712	2.0803356115941
21	12350	112.676104830306	3.4148643794639
21	12784	116.09096920977	1.5073906188105
21	12924	117.598359828581	3.9028295757809
21	13359	121.501189404362	0.28931466242535
21	13378	121.790504066787	0.55336165961
21	13441	122.343865726397	0.84087076670742
21	13543	123.184736493104	3.3761334543266
21	13882	126.560869947431	5.3238751551481
21	14454	131.884745102579	1.9420416889901
21	14592	133.826786791569	0.55781498639052
21	14634	134.38460177796	8.0640013940891
21	15661	142.448603172049	1.9914469842319
21	15888	144.440050156281	2.08070104761
21	16118	146.520751203891	2.8726017954575
21	16378	149.393352999349	1.2023468295207
21	16472	150.59569982887	2.6947672677115
21	16781	153.290467096582	0.93678118843412
21	16872	154.227248285016	0.5905714685173
21	16930	154.817819753533	3.5978708752602
21	17345	158.415690628793	2.0874780946553
21	17556	160.503168723448	0.6270574263758
21	17603	161.130226149824	0.54454484609052
21	17666	161.674770995915	0.66297256861832
21	17726	162.337743564533	2.7017825112615
21	18013	165.039526075795	2.0870256457437
21	18233	167.126551721539	0.62452214807611
21	18277	167.751073869615	0.91087414513988
21	18324	168.661948014755	0.23843885919523
21	18352	168.90038687395	4.0069633496403
21	18750	172.90735022359	0.73170045999618
21	18854	173.639050683586	0.15690255043292
21	18862	173.795953234019	3.2887719579354
21	19163	177.084725191954	0.20029794594391
21	19209	177.285023137898	0.7170000186067
21	19255	178.002023156505	0.86048079576035
21	19329	178.862503952265	0.30341352714952
21	19370	179.165917479415	1.6758472161876
21	19569	180.841764695603	2.7177685366219
21	19870	183.559533232225	6.7230684440566
21	20600	190.282601676282	3.0788979977582
21	20959	193.36149967404	0.92360609872947
21	21049	194.285105772769	0.10214828248549
21	21063	194.387254055254	2.1089955320942
21	21264	196.496249587348	0.77599964823588
21	21356	197.272249235584	1.5132192545472
21	21488	198.785468490131	1.83318708321
21	21720	200.618655573341	0.23745422773421
21	21735	200.856109801075	4.029144626684
21	22165	204.885254427759	1.6650635393694
21	22348	206.550317967128	1.5418928711541
21	22551	208.092210838282	2.9731036784118
21	22846	211.065314516694	0.56014076079067
21	22934	211.625455277485	0.94725849714478
21	23040	212.57271377463	0.85222371319982
21	23128	213.42493748783	3.5480929674447
21	23469	216.973030455275	1.1804118876715
21	23589	218.153442342947	0.48711589930175
21	23655	218.640558242249	2.8560904700803
21	24033	221.496648712329	2.2285771397958
21	24276	223.725225852125	1.2870643807885
21	24405	225.012290232913	4.5660869199466
21	24945	229.57837715286	1.6667061267497
21	25151	231.24508327961	1.3920761951803
21	25359	232.63715947479	5.3329627511602
21	25969	237.97012222595	0.027451910117067
21	25976	237.997574136067	4.2052752087935
21	26391	242.202849344861	0.18800479019069
21	26425	242.390854135052	5.6000221938115
21	27027	247.990876328863	3.5195274829697
21	27427	251.510403811833	0.70164283281944
21	27504	252.212046644652	5.5255751717194
21	28068	257.737621816371	2.5539061861399
21	28351	260.291528002511	0.80561026438841
21	28395	261.097138266899	3.0332909007865
21	28660	264.130429167685	3.3637953203626
21	29007	267.494224488048	4.4229968603508
21	29474	271.917221348399	6.4224226838126
21	30227	278.339644032212	0.38967297139402
21	30284	278.729317003606	1.6832854260339
21	30514	280.41260242964	0.82879306757035
21	30582	281.24139549721	0.63540670411972
21	30673	281.87680220133	3.6802476277802
21	31113	285.55704982911	1.4997723006409
21	31221	287.056822129751	0.88875554770015
21	31319	287.945577677451	1.9298496970079
21	31520	289.875427374459	0.11760271781959
21	31529	289.993030092279	0.18366539233969
21	31570	290.176695484619	0.030101938449058
21	31573	290.206797423068	0.31236863445382
21	31640	290.519166057522	5.0133524960369
21	32127	295.532518553559	3.4522758303036
21	32494	298.984794383863	6.9423566143134
21	33352	305.927150998176	0.65982260021273
21	33415	306.586973598389	0.29231512124544
21	33442	306.879288719634	3.8558904216402
21	33848	310.735179141274	1.0250731652064
21	33973	311.76025230648	2.0645006793758
21	34221	313.824752985856	4.2074299797184
21	34640	318.032182965574	0.055273440477338
21	34643	318.087456406051	0.73714593781046
21	34763	318.824602343861	2.3769127259945
21	35036	321.201515069856	1.7996103973505
21	35246	323.001125467207	1.8087282210385
21	35411	324.809853688245	2.4619457120868
21	35678	327.271799400332	3.5052446816157
21	36029	330.777044081948	0.86834376285118
21	36139	331.645387844799	0.25243744336519
21	36168	331.897825288164	1.0731603133189
21	36310	332.970985601483	1.0864764448562
21	36422	334.057462046339	0.55527218253446
21	36487	334.612734228873	2.1646966220817
21	36723	336.777430850955	2.2793096700627
21	36931	339.056740521018	0.058952463831756
21	36939	339.11569298485	0.1334456368685
21	36953	339.249138621719	1.1651859838197
21	37070	340.414324605539	0.84875662546375
21	37171	341.263081231003	0.25161122593135
21	37221	341.514692456934	3.6464294567699
21	37632	345.161121913704	0.58808459525504
21	37736	345.749206508959	0.9508954337716
21	37833	346.700101942731	0.7671879430471
21	37947	347.467289885778	3.7249714963689
21	38361	351.192261382147	2.1980188258193
21	38649	353.390280207966	1.0804835451643
21	38797	354.47076375313	2.1359703932307
21	39051	356.606734146361	4.5156240443774
21	39506	361.122358190738	3.5168679915566
21	39923	364.639226182295	0.30613734963746
21	39941	364.945363531932	1.9239378731927
21	40125	366.869301405125	2.0578535682487
21	40337	368.927154973374	3.2436498224546
21	40662	372.170804795829	2.1142750012119
21	40879	374.285079797041	1.0916740919113
21	40975	375.376753888952	0.58559750161779
21	41041	375.96235139057	0.47431125692997
21	41067	376.4366626475	2.3175127959759
21	41270	378.754175443476	1.8072714751989
21	41544	380.561446918675	1.779714472451
21	41726	382.341161391126	0.010043388908823
21	41727	382.351204780035	4.1370885663255
21	42174	386.488293346361	1.6761659177576
21	42425	388.164459264119	1.9184696906805
21	42666	390.0829289548	1.1337196187397
21	42786	391.21664857354	6.4058227160025
21	43583	397.622471289542	1.3986063416049
21	43740	399.021077631147	0.50628712380873
21	43787	399.527364754956	0.33575511220966
21	43814	399.863119867166	2.261069234334

