version 2
run Nonmonitoring-exponential-577-20210224-17:49:32-27097
attr configname Nonmonitoring-exponential
attr datetime 20210224-17:49:32
attr experiment Nonmonitoring-exponential
attr inifile aerocom.ini
attr iterationvars $0=50
attr iterationvarsf 50-
attr measurement $0=50
attr network Aerocom
attr processid 27097
attr repetition 77
attr replication #77
attr resultdir results
attr runnumber 577
attr seedset 77
param **.t 2s
param **.k 50ms
param **.X 0.05s
param **.m 1s
param **.tDistribution "\"exponential\""
param **.operationMode 1
param **.s "70 byte"
param **.dimPoolMax 10000
param **.dimPoolMin 8000
param **.nDL 16
param **.nA 1
param **.DLMaxCapacity 0
param **.trasmitting false

vector 0 Aerocom.aircraft[0].packetGenerator arrivalTime:vector ETV
attr "" ""
attr source computeArrivalTime
vector 1 Aerocom.aircraft[0].linkSelector waitingTime:vector ETV
attr "" ""
attr source computeWaitingTime
vector 2 Aerocom.aircraft[0].linkSelector queueLength:vector ETV
attr "" ""
attr source computeQueueLength
vector 3 Aerocom.aircraft[0].dataLink[13] actualCapacity:vector ETV
attr "" ""
attr source computeActualCapacity
vector 4 Aerocom.aircraft[0].linkSelector serviceTime:vector ETV
attr "" ""
attr source computeServiceTime
vector 5 Aerocom.aircraft[0].linkSelector responseTime:vector ETV
attr "" ""
attr source computeResponseTime
vector 6 Aerocom.aircraft[0].dataLink[9] tDistribution:vector ETV
attr "" ""
attr source computeTDistribution
vector 7 Aerocom.aircraft[0].dataLink[14] tDistribution:vector ETV
attr "" ""
attr source computeTDistribution
vector 8 Aerocom.aircraft[0].dataLink[5] tDistribution:vector ETV
attr "" ""
attr source computeTDistribution
vector 9 Aerocom.aircraft[0].dataLink[10] tDistribution:vector ETV
attr "" ""
attr source computeTDistribution
vector 10 Aerocom.aircraft[0].dataLink[1] tDistribution:vector ETV
attr "" ""
attr source computeTDistribution
vector 11 Aerocom.aircraft[0].dataLink[13] tDistribution:vector ETV
attr "" ""
attr source computeTDistribution
vector 12 Aerocom.aircraft[0].dataLink[12] tDistribution:vector ETV
attr "" ""
attr source computeTDistribution
vector 13 Aerocom.aircraft[0].dataLink[15] tDistribution:vector ETV
attr "" ""
attr source computeTDistribution
vector 14 Aerocom.aircraft[0].dataLink[8] tDistribution:vector ETV
attr "" ""
attr source computeTDistribution
vector 15 Aerocom.aircraft[0].dataLink[4] tDistribution:vector ETV
attr "" ""
attr source computeTDistribution
vector 16 Aerocom.aircraft[0].dataLink[6] tDistribution:vector ETV
attr "" ""
attr source computeTDistribution
vector 17 Aerocom.aircraft[0].dataLink[2] tDistribution:vector ETV
attr "" ""
attr source computeTDistribution
vector 18 Aerocom.aircraft[0].dataLink[3] tDistribution:vector ETV
attr "" ""
attr source computeTDistribution
vector 19 Aerocom.aircraft[0].dataLink[0] tDistribution:vector ETV
attr "" ""
attr source computeTDistribution
vector 20 Aerocom.aircraft[0].dataLink[11] tDistribution:vector ETV
attr "" ""
attr source computeTDistribution
vector 21 Aerocom.aircraft[0].dataLink[7] tDistribution:vector ETV
attr "" ""
attr source computeTDistribution
0	1088	10.021219996863	0.04887572836
0	1093	10.070095725223	0.121502098053
0	1101	10.191597823276	0.17300299772
0	1106	10.364600820996	0.075735433976
0	1111	10.440336254972	0.156102452082
0	1116	10.596438707054	0.002180800002
0	1118	10.598619507056	0.039832662583
0	1126	10.638452169639	0.005061994522
0	1128	10.643514164161	0.006506844184
0	1133	10.650021008345	0.165661132749
0	1142	10.815682141094	0.041736463062
0	1147	10.857418604156	0.010078667493
0	1152	10.867497271649	0.090485190927
0	1157	10.957982462576	0.027468305723
0	1162	10.985450768299	0.010177560117
0	1167	10.995628328416	0.00518839734
0	1169	11.000816725756	0.016563813636
0	1177	11.017380539392	0.024882653021
0	1183	11.042263192413	0.05414878842
0	1189	11.096411980833	0.023109017632
0	1194	11.119520998465	0.139642720565
0	1201	11.25916371903	0.009678506259
0	1207	11.268842225289	0.052238880534
0	1213	11.321081105823	0.083712255203
0	1218	11.404793361026	0.018337156316
0	1223	11.423130517342	0.008479734096
0	1228	11.431610251438	0.005110661115
0	1230	11.436720912553	0.023467571315
0	1238	11.460188483868	0.096263105045
0	1244	11.556451588913	0.101214858732
0	1249	11.657666447645	0.07862267631
0	1256	11.736289123955	0.004801200166
0	1258	11.741090324121	0.026524914188
0	1266	11.767615238309	0.056073320371
0	1273	11.82368855868	0.134132260661
0	1278	11.957820819341	0.036355980855
0	1283	11.994176800196	0.038378197468
0	1288	12.032554997664	0.028181301027
0	1294	12.060736298691	0.068570955573
0	1299	12.129307254264	0.036503920542
0	1304	12.165811174806	0.000875412499
0	1306	12.166686587305	0.007873492118
0	1311	12.174560079423	0.073012401889
0	1319	12.247572481312	0.030614203723
0	1324	12.278186685035	0.008343211328
0	1329	12.286529896363	0.014630459131
0	1334	12.301160355494	0.071891467254
0	1339	12.373051822748	0.018940698481
0	1344	12.391992521229	0.000647459458
0	1346	12.392639980687	0.028147585369
0	1354	12.420787566056	0.105613228478
0	1359	12.526400794534	0.02534922427
0	1364	12.551750018804	0.004275615744
0	1366	12.556025634548	0.151807190735
0	1375	12.707832825283	0.027258397309
0	1381	12.735091222592	0.039910563695
0	1386	12.775001786287	0.00312022173
0	1388	12.778122008017	0.006623532793
0	1394	12.78474554081	0.10653308678
0	1404	12.89127862759	0.109018137963
0	1409	13.000296765553	0.053950641736
0	1414	13.054247407289	0.109520824393
0	1420	13.163768231682	0.028877115629
0	1425	13.192645347311	0.008725103855
0	1430	13.201370451166	0.035514184754
0	1435	13.23688463592	0.028611146166
0	1440	13.265495782086	0.000664818094
0	1442	13.26616060018	0.048808951619
0	1450	13.314969551799	0.044704373563
0	1456	13.359673925362	0.0040090507
0	1458	13.363682976062	0.07640040113
0	1466	13.440083377192	0.001310481245
0	1468	13.441393858437	0.256206618369
0	1479	13.697600476806	0.038004205629
0	1484	13.735604682435	0.002720155857
0	1486	13.738324838292	0.002768099575
0	1488	13.741092937867	0.04069993285
0	1499	13.781792870717	0.057436602851
0	1504	13.839229473568	0.005900443043
0	1506	13.845129916611	0.011231655574
0	1514	13.856361572185	0.034498534411
0	1519	13.890860106596	0.090268510039
0	1526	13.981128616635	0.021707410453
0	1531	14.002836027088	0.005929563822
0	1533	14.00876559091	0.004396333817
0	1538	14.013161924727	0.02293872679
0	1547	14.036100651517	0.065096046233
0	1552	14.10119669775	0.121570038895
0	1560	14.222766736645	0.02929328166
0	1565	14.252060018305	0.029689994334
0	1570	14.281750012639	0.012273811835
0	1575	14.294023824474	0.015431079563
0	1580	14.309454904037	0.100777090526
0	1585	14.410231994563	0.017739792589
0	1590	14.427971787152	0.012709281507
0	1595	14.440681068659	0.068854276649
0	1601	14.509535345308	0.066558255473
0	1606	14.576093600781	0.004358925298
0	1608	14.580452526079	0.062509483557
0	1618	14.642962009636	0.08339922017
0	1623	14.726361229806	0.068919316625
0	1628	14.795280546431	0.025167053299
0	1633	14.82044759973	0.083500721172
0	1639	14.903948320902	0.018223577986
0	1644	14.922171898888	0.172775693933
0	1654	15.094947592821	0.011320432842
0	1659	15.106268025663	0.016495461606
0	1664	15.122763487269	0.205893262596
0	1672	15.328656749865	0.027443128036
0	1677	15.356099877901	0.033494242014
0	1683	15.389594119915	0.103135610906
0	1688	15.492729730821	0.009650066265
0	1693	15.502379797086	0.02650342457
0	1698	15.528883221656	0.045192200202
0	1703	15.574075421858	0.045653618526
0	1708	15.619729040384	0.059034564609
0	1713	15.678763604993	0.038347172891
0	1718	15.717110777884	0.025502245756
0	1723	15.74261302364	0.013076708667
0	1728	15.755689732307	0.038193528737
0	1733	15.793883261044	0.110298020523
0	1738	15.904181281567	0.026171630916
0	1744	15.930352912483	0.039890326554
0	1749	15.970243239037	0.038833112775
0	1755	16.009076351812	0.066872307141
0	1760	16.075948658953	0.007447020849
0	1762	16.083395679802	0.012534865388
0	1771	16.09593054519	0.013012099597
0	1776	16.108942644787	0.089088838691
0	1781	16.198031483478	0.003798890765
0	1783	16.201830374243	0.086843982748
0	1791	16.288674356991	0.115431571458
0	1797	16.404105928449	0.068882780021
0	1802	16.47298870847	0.009679146425
0	1807	16.482667854895	0.087801370179
0	1813	16.570469225074	0.111110131791
0	1818	16.681579356865	0.036308787321
0	1823	16.717888144186	0.151694910936
0	1828	16.869583055122	0.006935075076
0	1830	16.876518130198	0.031501017194
0	1838	16.908019147392	0.122056722975
0	1845	17.030075870367	0.030005825578
0	1850	17.060081695945	0.013849900189
0	1855	17.073931596134	0.048069857498
0	1860	17.122001453632	0.080106736723
0	1866	17.202108190355	0.028565531065
0	1872	17.23067372142	0.030988323388
0	1878	17.261662044808	0.015640592372
0	1883	17.27730263718	0.007028447382
0	1885	17.284331084562	0.068006887544
0	1894	17.352337972106	0.001789352219
0	1896	17.354127324325	0.003679390158
0	1898	17.357806714483	0.053862372171
0	1909	17.411669086654	0.043564397523
0	1915	17.455233484177	0.061747190951
0	1920	17.516980675128	0.032036418457
0	1925	17.549017093585	0.114345197796
0	1931	17.663362291381	0.00282380588
0	1933	17.666186097261	0.256121896871
0	1943	17.922307994132	0.020717183351
0	1948	17.943025177483	0.047453992655
0	1953	17.990479170138	0.012698244666
0	1958	18.003177414804	0.019606011284
0	1963	18.022783426088	0.023590160112
0	1968	18.0463735862	0.091030150791
0	1974	18.137403736991	0.158444444635
0	1980	18.295848181626	0.007079915476
0	1982	18.302928097102	0.021147903834
0	1990	18.324076000936	0.006643282327
0	1992	18.330719283263	0.039416194827
0	2000	18.37013547809	0.040814177181
0	2005	18.410949655271	0.016583036849
0	2010	18.42753269212	0.004935185648
0	2012	18.432467877768	0.026652726148
0	2020	18.459120603916	0.026129233109
0	2025	18.485249837025	0.042049295856
0	2030	18.527299132881	0.13344991682
0	2035	18.660749049701	0.01998938503
0	2040	18.680738434731	0.040373529536
0	2046	18.721111964267	0.028854282765
0	2051	18.749966247032	0.018929144506
0	2056	18.768895391538	0.052191196433
0	2062	18.821086587971	0.143379036155
0	2069	18.964465624126	0.017790671187
0	2074	18.982256295313	0.030584128483
0	2079	19.012840423796	0.039515799666
0	2084	19.052356223462	0.023843689826
0	2089	19.076199913288	0.036955869584
0	2095	19.113155782872	0.133355529559
0	2100	19.246511312431	0.109142922877
0	2106	19.355654235308	0.02306809832
0	2111	19.378722333628	0.046359123476
0	2117	19.425081457104	0.01629489454
0	2122	19.441376351644	0.102012953762
0	2129	19.543389305406	0.021575727428
0	2134	19.564965032834	0.053708998963
0	2139	19.618674031797	0.045798579077
0	2144	19.664472610874	0.035551095921
0	2149	19.700023706795	0.05456899541
0	2154	19.754592702205	0.018091521708
0	2159	19.772684223913	0.049056285325
0	2164	19.821740509238	0.007426383011
0	2166	19.829166892249	0.020829031854
0	2174	19.849995924103	0.013475141228
0	2179	19.863471065331	0.071049527763
0	2185	19.934520593094	0.017672767329
0	2190	19.952193360423	0.036338491497
0	2195	19.98853185192	0.179884801613
0	2200	20.168416653533	0.059234403416
0	2206	20.227651056949	0.055156433544
0	2212	20.282807490493	0.009533075641
0	2217	20.292340566134	0.000497590045
0	2219	20.292838156179	0.033600552622
0	2228	20.326438708801	0.094415952912
0	2234	20.420854661713	0.007128303753
0	2236	20.427982965466	0.032672613936
0	2244	20.460655579402	0.053653370636
0	2249	20.514308950038	0.023359770715
0	2255	20.537668720753	0.042821463329
0	2260	20.580490184082	0.011716217498
0	2265	20.59220640158	0.014789983944
0	2270	20.606996385524	0.082408895152
0	2277	20.689405280676	0.034430928524
0	2282	20.7238362092	0.017688658352
0	2287	20.741524867552	0.010825179016
0	2292	20.752350046568	0.055881947671
0	2299	20.808231994239	0.027183061498
0	2304	20.835415055737	0.231344756816
0	2314	21.066759812553	0.077232665442
0	2320	21.143992477995	0.005290333223
0	2322	21.149282811218	0.04968718963
0	2331	21.198970000848	0.065153632917
0	2336	21.264123633765	0.015571274366
0	2341	21.279694908131	0.015649706749
0	2346	21.29534461488	0.137687976725
0	2353	21.433032591605	0.012970273924
0	2358	21.446002865529	0.055807267996
0	2364	21.501810133525	0.110100359383
0	2370	21.611910492908	0.042287975224
0	2375	21.654198468132	0.115541771526
0	2380	21.769740239658	0.039384263125
0	2385	21.809124502783	0.005041957298
0	2387	21.814166460081	0.138248222847
0	2396	21.952414682928	0.011465128945
0	2401	21.963879811873	0.000202319538
0	2403	21.964082131411	0.077678300418
0	2411	22.041760431829	0.09747352114
0	2417	22.139233952969	0.046333237977
0	2422	22.185567190946	0.037664266592
0	2428	22.223231457538	0.001642143095
0	2430	22.224873600633	0.025182859715
0	2438	22.250056460348	0.011457258695
0	2443	22.261513719043	0.17781136599
0	2450	22.439325085033	0.011042347124
0	2455	22.450367432157	0.015496051769
0	2460	22.465863483926	0.017559836896
0	2465	22.483423320822	0.014681540418
0	2470	22.49810486124	0.041921284032
0	2475	22.540026145272	0.077958294712
0	2480	22.617984439984	0.119211382479
0	2486	22.737195822463	0.07899970913
0	2491	22.816195531593	0.022487620522
0	2497	22.838683152115	0.039297134081
0	2502	22.877980286196	0.040101157745
0	2507	22.918081443941	0.003366023999
0	2509	22.92144746794	0.099814329763
0	2517	23.021261797703	0.056848598575
0	2522	23.078110396278	0.010432909686
0	2527	23.088543305964	0.00804441161
0	2532	23.096587717574	0.008019913105
0	2537	23.104607630679	0.129415508004
0	2543	23.234023138683	0.030208994679
0	2548	23.264232133362	0.147162826968
0	2553	23.41139496033	0.000119998286
0	2555	23.411514958616	0.021503801917
0	2563	23.433018760533	0.011225791192
0	2568	23.444244551725	0.003097003258
0	2570	23.447341554983	0.00446373483
0	2572	23.451805289813	0.035118335975
0	2583	23.486923625788	0.003939971524
0	2585	23.490863597312	0.024139372906
0	2593	23.515002970218	0.049602525588
0	2599	23.564605495806	0.044338718788
0	2604	23.608944214594	0.014118938093
0	2609	23.623063152687	0.082626967314
0	2614	23.705690120001	0.037186359281
0	2619	23.742876479282	0.00062667509
0	2621	23.743503154372	0.141590157313
0	2630	23.885093311685	0.052489459128
0	2635	23.937582770813	0.002112115304
0	2637	23.939694886117	0.071132189446
0	2645	24.010827075563	0.07754333711
0	2650	24.088370412673	0.01891769026
0	2656	24.107288102933	0.148450419218
0	2662	24.255738522151	0.029057304309
0	2667	24.28479582646	0.017513425461
0	2672	24.302309251921	0.07250068712
0	2678	24.374809939041	0.011051301912
0	2683	24.385861240953	0.083069861752
0	2688	24.468931102705	0.027542756444
0	2693	24.496473859149	0.010800372866
0	2698	24.507274232015	0.023064758711
0	2703	24.530338990726	0.027698206603
0	2709	24.558037197329	0.010655930515
0	2714	24.568693127844	0.011895887687
0	2719	24.580589015531	0.070414734588
0	2724	24.651003750119	0.075080847768
0	2730	24.726084597887	0.007169755848
0	2732	24.733254353735	0.019709419941
0	2740	24.752963773676	0.311379574384
0	2750	25.06434334806	0.136828150327
0	2755	25.201171498387	0.042295421586
0	2761	25.243466919973	0.009401933635
0	2766	25.252868853608	0.031423557523
0	2771	25.284292411131	0.055829134829
0	2776	25.34012154596	0.022686456203
0	2781	25.362808002163	0.114436512245
0	2788	25.477244514408	0.058932586097
0	2796	25.536177100505	0.048599107112
0	2801	25.584776207617	0.004466892801
0	2803	25.589243100418	0.08833724704
0	2812	25.677580347458	0.157779217158
0	2821	25.835359564616	0.013916000376
0	2826	25.849275564992	0.003408188728
0	2828	25.85268375372	0.011658575688
0	2833	25.864342329408	0.017545536887
0	2841	25.881887866295	0.062902073482
0	2848	25.944789939777	0.171531828207
0	2853	26.116321767984	0.04029424966
0	2858	26.156616017644	0.062583746307
0	2864	26.219199763951	0.096092022696
0	2869	26.315291786647	0.066166293286
0	2875	26.381458079933	0.062163175252
0	2880	26.443621255185	0.064278565941
0	2886	26.507899821126	0.028975603668
0	2891	26.536875424794	0.177784332099
0	2898	26.714659756893	0.150316551363
0	2903	26.864976308256	0.057963057775
0	2908	26.922939366031	0.079892559856
0	2914	27.002831925887	0.028455427858
0	2919	27.031287353745	0.041929917681
0	2925	27.073217271426	0.107963091788
0	2930	27.181180363214	0.034232013804
0	2936	27.215412377018	0.032980812908
0	2941	27.248393189926	0.039149923846
0	2947	27.287543113772	0.011123337159
0	2952	27.298666450931	0.063211906904
0	2957	27.361878357835	0.005833114806
0	2959	27.367711472641	0.084173048526
0	2968	27.451884521167	0.066181073773
0	2974	27.51806559494	0.046222859961
0	2981	27.564288454901	0.01975072386
0	2987	27.584039178761	0.155833339034
0	2992	27.739872517795	0.111503011779
0	2997	27.851375529574	0.000488616925
0	2999	27.851864146499	0.133790161819
0	3009	27.985654308318	0.002033600064
0	3011	27.987687908382	0.039675023514
0	3019	28.027362931896	0.028163986165
0	3025	28.055526918061	0.019307257766
0	3030	28.074834175827	0.006464002729
0	3032	28.081298178556	0.097396734103
0	3040	28.178694912659	0.011673365435
0	3046	28.190368278094	0.016593905941
0	3052	28.206962184035	0.061557601188
0	3057	28.268519785223	0.033191841577
0	3062	28.3017116268	0.024199339387
0	3068	28.325910966187	0.001003394685
0	3070	28.326914360872	0.04283518055
0	3078	28.369749541422	0.038375135023
0	3084	28.408124676445	0.005894356935
0	3086	28.41401903338	0.022154949535
0	3095	28.436173982915	0.033780719326
0	3100	28.469954702241	0.051907220565
0	3105	28.521861922806	0.01060609609
0	3110	28.532468018896	0.027618022291
0	3115	28.560086041187	0.169765110777
0	3120	28.729851151964	0.047435539655
0	3126	28.777286691619	0.02551510136
0	3131	28.802801792979	0.046584968727
0	3136	28.849386761706	0.027912768913
0	3141	28.877299530619	0.010348459551
0	3146	28.88764799017	0.026180638637
0	3151	28.913828628807	0.014492694227
0	3156	28.928321323034	0.060454742203
0	3161	28.988776065237	0.002377873202
0	3163	28.991153938439	0.032945573836
0	3173	29.024099512275	0.003354203537
0	3175	29.027453715812	0.080975180268
0	3183	29.10842889608	0.025744512736
0	3188	29.134173408816	0.014409158705
0	3194	29.148582567521	0.078748202116
0	3199	29.227330769637	0.013546453084
0	3204	29.240877222721	0.054294624438
0	3209	29.295171847159	0.01798370527
0	3214	29.313155552429	0.033894178678
0	3219	29.347049731107	0.033144554161
0	3226	29.380194285268	0.030774828124
0	3231	29.410969113392	0.092639899107
0	3236	29.503609012499	0.079027293105
0	3242	29.582636305604	0.000306510889
0	3244	29.582942816493	0.092272961211
0	3253	29.675215777704	0.005287605983
0	3255	29.680503383687	0.116961580198
0	3264	29.797464963885	0.005764186229
0	3266	29.803229150114	0.011973732281
0	3274	29.815202882395	0.025486338822
0	3279	29.840689221217	0.032884542369
0	3285	29.873573763586	0.02261203408
0	3290	29.896185797666	0.014036200506
0	3295	29.910221998172	0.018829954257
0	3300	29.929051952429	0.091388049334
0	3306	30.020440001763	0.021514972212
0	3311	30.041954973975	0.083203890387
0	3316	30.125158864362	0.055874288756
0	3321	30.181033153118	0.026520418608
0	3326	30.207553571726	0.01417342233
0	3331	30.221726994056	0.21157575207
0	3339	30.433302746126	0.015447791075
0	3344	30.448750537201	0.07445418488
0	3350	30.523204722081	0.011433839027
0	3355	30.534638561108	0.108414925503
0	3362	30.643053486611	0.054927896093
0	3367	30.697981382704	0.009239386862
0	3372	30.707220769566	0.039075537023
0	3378	30.746296306589	0.138084608561
0	3384	30.88438091515	0.02352923463
0	3389	30.90791014978	0.103357313034
0	3396	31.011267462814	0.055136120831
0	3401	31.066403583645	0.026538220699
0	3407	31.092941804344	0.039471236244
0	3412	31.132413040588	0.039083244142
0	3417	31.17149628473	0.176447267257
0	3424	31.347943551987	0.028856743867
0	3429	31.376800295854	0.010249137529
0	3434	31.387049433383	0.002358468926
0	3436	31.389407902309	0.010683749166
0	3441	31.400091651475	0.031930798073
0	3450	31.432022449548	0.069949815035
0	3456	31.501972264583	0.023311529559
0	3461	31.525283794142	0.008494338992
0	3466	31.533778133134	0.079856613923
0	3472	31.613634747057	0.08795159292
0	3477	31.701586339977	0.04196031862
0	3482	31.743546658597	0.054672206505
0	3487	31.798218865102	0.043780293111
0	3492	31.841999158213	0.175575215164
0	3497	32.017574373377	0.061488637386
0	3502	32.079063010763	0.007096791097
0	3504	32.08615980186	0.037765051554
0	3512	32.123924853414	0.140157167835
0	3518	32.264082021249	0.117382352784
0	3525	32.381464374033	0.065991917266
0	3530	32.447456291299	0.028819020083
0	3536	32.476275311382	0.02240218454
0	3541	32.498677495922	0.050764839567
0	3547	32.549442335489	0.008392768312
0	3552	32.557835103801	0.066509623813
0	3557	32.624344727614	0.074990943283
0	3562	32.699335670897	0.011234294837
0	3567	32.710569965734	0.128765108669
0	3573	32.839335074403	0.08710026586
0	3579	32.926435340263	0.019841058988
0	3584	32.946276399251	0.006100104609
0	3586	32.95237650386	0.058594062003
0	3595	33.010970565863	0.02704284643
0	3600	33.038013412293	0.019493081665
0	3605	33.057506493958	0.018080446736
0	3610	33.075586940694	0.010087117096
0	3615	33.08567405779	0.000678038827
0	3617	33.086352096617	0.019259793593
0	3625	33.10561189021	0.040059341084
0	3630	33.145671231294	0.010460568347
0	3635	33.156131799641	0.015677035115
0	3641	33.171808834756	0.016469801038
0	3646	33.188278635794	0.02045976493
0	3652	33.208738400724	0.209253773298
0	3657	33.417992174022	0.042524085131
0	3662	33.460516259153	0.02679144512
0	3668	33.487307704273	0.015422917891
0	3673	33.502730622164	0.126099048313
0	3679	33.628829670477	0.052480303139
0	3684	33.681309973616	0.105796001438
0	3689	33.787105975054	0.023894651885
0	3695	33.811000626939	0.01716204427
0	3700	33.828162671209	0.02288590721
0	3705	33.851048578419	0.012536207808
0	3710	33.863584786227	0.050093137564
0	3716	33.913677923791	0.00491292958
0	3718	33.918590853371	0.068068638767
0	3726	33.986659492138	0.044818357812
0	3732	34.03147784995	0.046072866258
0	3737	34.077550716208	0.081310062793
0	3743	34.158860779001	0.020955173169
0	3749	34.17981595217	0.155702350855
0	3756	34.335518303025	0.072247077035
0	3761	34.40776538006	0.002476607882
0	3763	34.410241987942	0.003699574839
0	3765	34.413941562781	0.081637761302
0	3776	34.495579324083	0.038441900163
0	3782	34.534021224246	0.02518167122
0	3787	34.559202895466	0.036247067889
0	3792	34.595449963355	0.078529265791
0	3798	34.673979229146	0.106149663783
0	3803	34.780128892929	0.014932855443
0	3808	34.795061748372	0.00616370186
0	3810	34.801225450232	0.016833973519
0	3819	34.818059423751	0.004839071691
0	3821	34.822898495442	0.048108782499
0	3829	34.871007277941	0.001001054597
0	3831	34.872008332538	0.086962194554
0	3840	34.958970527092	0.049464872695
0	3845	35.008435399787	0.033960667882
0	3850	35.042396067669	0.093116467707
0	3855	35.135512535376	0.03775076469
0	3860	35.173263300066	0.050111347517
0	3868	35.223374647583	0.088207965477
0	3874	35.31158261306	0.032987381549
0	3879	35.344569994609	0.071833711279
0	3887	35.416403705888	0.150726258556
0	3895	35.567129964444	0.067535439228
0	3900	35.634665403672	0.070199256548
0	3905	35.70486466022	0.128959509813
0	3911	35.833824170033	0.017339208987
0	3916	35.85116337902	0.014283632104
0	3921	35.865447011124	0.052658954478
0	3927	35.918105965602	0.005525428686
0	3929	35.923631394288	0.084755281806
0	3937	36.008386676094	0.041028096019
0	3944	36.049414772113	0.019589006122
0	3949	36.069003778235	0.004867185572
0	3951	36.073870963807	0.071117349693
0	3960	36.1449883135	0.001250439287
0	3962	36.146238752787	0.037899991885
0	3970	36.184138744672	0.011609248502
0	3975	36.195747993174	0.024146296941
0	3980	36.219894290115	0.130325355579
0	3985	36.350219645694	0.016344174744
0	3990	36.366563820438	0.009586509848
0	3995	36.376150330286	0.037678787692
0	4000	36.413829117978	0.164876498118
0	4005	36.578705616096	0.04201942485
0	4011	36.620725040946	0.006357013342
0	4013	36.627082054288	0.025513301409
0	4021	36.652595355697	0.017299858176
0	4026	36.669895213873	0.0007157065
0	4028	36.670610920373	0.003660453557
0	4030	36.67427137393	0.004615859821
0	4035	36.678887233751	0.034656371463
0	4047	36.713543605214	0.069966697462
0	4053	36.783510302676	0.080988112236
0	4060	36.864498414912	0.016010577945
0	4065	36.880508992857	0.042476247901
0	4070	36.922985240758	0.046505802004
0	4076	36.969491042762	0.129578336197
0	4081	37.099069378959	0.03817154899
0	4087	37.137240927949	0.088151868755
0	4092	37.225392796704	0.003810515577
0	4094	37.229203312281	0.004892530125
0	4099	37.234095842406	0.026993984039
0	4107	37.261089826445	0.001299371425
0	4109	37.26238919787	0.002757738614
0	4111	37.265146936484	0.05471366141
0	4122	37.319860597894	0.164995962199
0	4127	37.484856560093	0.024378911029
0	4132	37.509235471122	0.016400304789
0	4137	37.525635775911	0.018250027142
0	4142	37.543885803053	0.078658818696
0	4148	37.622544621749	0.000323028525
0	4150	37.622867650274	0.063541272586
0	4158	37.68640892286	0.039815845746
0	4163	37.726224768606	0.115438314471
0	4169	37.841663083077	0.013317846081
0	4174	37.854980929158	0.034144291667
0	4179	37.889125220825	0.112165962695
0	4184	38.00129118352	0.01615838583
0	4189	38.01744956935	0.131230916125
0	4194	38.148680485475	0.040606292499
0	4200	38.189286777974	0.055841477283
0	4207	38.245128255257	0.020258595976
0	4212	38.265386851233	0.016509416945
0	4217	38.281896268178	0.05945928409
0	4223	38.341355552268	0.040827291702
0	4228	38.38218284397	0.006270926012
0	4230	38.388453769982	0.007420778475
0	4235	38.395874548457	0.006336673641
0	4240	38.402211222098	0.037352940268
0	4248	38.439564162366	0.000916425464
0	4250	38.44048058783	0.187199246584
0	4258	38.627679834414	0.047383840781
0	4265	38.675063675195	0.06629453183
0	4270	38.741358207025	0.057339814564
0	4276	38.798698021589	0.033089016925
0	4281	38.831787038514	0.152145183334
0	4286	38.983932221848	0.00210474856
0	4288	38.986036970408	0.022242746899
0	4298	39.008279717307	0.063202602644
0	4304	39.071482319951	0.055458036325
0	4309	39.126940356276	0.120880022039
0	4315	39.247820378315	0.02841684288
0	4320	39.276237221195	0.337950950403
0	4333	39.614188171598	0.052073628241
0	4338	39.666261799839	0.076946091147
0	4344	39.743207890986	0.013749721032
0	4349	39.756957612018	0.008036573106
0	4354	39.764994185124	0.141689096781
0	4359	39.906683281905	0.075257301992
0	4365	39.981940583897	0.004861577179
0	4367	39.986802161076	0.015264470367
0	4375	40.002066631443	0.108434549823
0	4383	40.110501181266	0.047651367291
0	4389	40.158152548557	0.023226617217
0	4394	40.181379165774	0.014862299218
0	4399	40.196241464992	0.026325743219
0	4404	40.222567208211	0.124006874492
0	4410	40.346574082703	0.007462509387
0	4415	40.35403659209	0.004119989882
0	4417	40.358156581972	0.082376374875
0	4425	40.440532956847	0.107253718541
0	4431	40.547786675388	0.003341702757
0	4433	40.551128378145	0.011265086755
0	4441	40.5623934649	0.029821746038
0	4446	40.592215210938	0.121349485431
0	4454	40.713564696369	0.074201448397
0	4460	40.787766144766	0.015215850578
0	4465	40.802981995344	0.02646227799
0	4471	40.829444273334	0.036318813166
0	4477	40.8657630865	0.003969591818
0	4479	40.869732678318	0.181435085113
0	4487	41.051167763431	0.028394468611
0	4492	41.079562232042	0.118852870351
0	4497	41.198415102393	0.007058527992
0	4499	41.205473630385	0.007081805448
0	4504	41.212555435833	0.080060590082
0	4513	41.292616025915	0.047826820939
0	4518	41.340442846854	0.030364238531
0	4523	41.370807085385	0.015529194014
0	4528	41.386336279399	0.008861084042
0	4533	41.395197363441	0.073494365377
0	4538	41.468691728818	0.126220672398
0	4544	41.594912401216	0.011483614816
0	4549	41.606396016032	0.269080610117
0	4555	41.875476626149	0.002726419147
0	4557	41.878203045296	0.042479587734
0	4565	41.92068263303	0.015439511675
0	4570	41.936122144705	0.032891326091
0	4575	41.969013470796	0.043520278159
0	4581	42.012533748955	0.089884537647
0	4587	42.102418286602	0.061597355879
0	4592	42.164015642481	0.063702113011
0	4598	42.227717755492	0.048670986983
0	4603	42.276388742475	0.043138767988
0	4608	42.319527510463	0.032703304947
0	4614	42.35223081541	0.107579922836
0	4619	42.459810738246	0.060180225338
0	4624	42.519990963584	0.002918872728
0	4626	42.522909836312	0.122239951651
0	4634	42.645149787963	0.02612631854
0	4639	42.671276106503	0.008674569029
0	4644	42.679950675532	0.001754591292
0	4646	42.681705266824	0.052525468652
0	4654	42.734230735476	0.042720576789
0	4660	42.776951312265	0.079200074289
0	4665	42.856151386554	0.072243431682
0	4670	42.928394818236	0.019882378676
0	4675	42.948277196912	0.01886947367
0	4681	42.967146670582	0.046897783902
0	4686	43.014044454484	0.010201222802
0	4691	43.024245677286	0.021285142254
0	4696	43.04553081954	0.03223687019
0	4702	43.07776768973	0.007470873155
0	4707	43.085238562885	0.062979795925
0	4712	43.14821835881	0.045636326843
0	4717	43.193854685653	0.022008305115
0	4722	43.215862990768	0.184687966079
0	4728	43.400550956847	0.055325273972
0	4733	43.455876230819	0.043247515285
0	4738	43.499123746104	0.057083489764
0	4743	43.556207235868	0.038096993777
0	4748	43.594304229645	0.007865318514
0	4753	43.602169548159	0.095677095896
0	4758	43.697846644055	0.00973961045
0	4763	43.707586254505	0.088639260118
0	4768	43.796225514623	0.08609755954
0	4774	43.882323074163	0.051176767181
0	4779	43.933499841344	0.041194726771
0	4784	43.974694568115	0.057786527278
0	4790	44.032481095393	0.048604239674
0	4795	44.081085335067	0.067634421274
0	4800	44.148719756341	0.080573325642
0	4806	44.229293081983	0.047812764168
0	4811	44.277105846151	0.041705844127
0	4816	44.318811690278	0.024550378923
0	4821	44.343362069201	0.00392756852
0	4823	44.347289637721	0.020917459381
0	4832	44.368207097102	0.043826565465
0	4837	44.412033662567	0.011640061997
0	4842	44.423673724564	0.027163115204
0	4848	44.450836839768	0.052336821913
0	4853	44.503173661681	0.04033915498
0	4858	44.543512816661	0.027124083355
0	4864	44.570636900016	0.008803394318
0	4869	44.579440294334	0.033863247071
0	4875	44.613303541405	0.110421233844
0	4880	44.723724775249	0.092556284443
0	4885	44.816281059692	0.070051536075
0	4890	44.886332595767	0.143458294215
0	4895	45.029790889982	0.040098139641
0	4900	45.069889029623	0.198234100353
0	4907	45.268123129976	0.037118592402
0	4912	45.305241722378	0.030737941477
0	4917	45.335979663855	0.180362589272
0	4924	45.516342253127	0.095535800495
0	4932	45.611878053622	0.065896682078
0	4938	45.6777747357	0.050892189279
0	4943	45.728666924979	0.007814240051
0	4948	45.73648116503	0.053414313802
0	4953	45.789895478832	0.165716934588
0	4959	45.95561241342	0.023288516797
0	4964	45.978900930217	0.051301802396
0	4970	46.030202732613	0.107318373386
0	4976	46.137521105999	0.012525746367
0	4981	46.150046852366	0.023366449577
0	4986	46.173413301943	0.003541877427
0	4988	46.17695517937	0.116317980354
0	4997	46.293273159724	8.81847e-06
0	4999	46.293281978194	0.170499101569
0	5007	46.463781079763	0.001022027537
0	5009	46.4648031073	0.030577647567
0	5017	46.495380754867	0.112230672788
0	5025	46.607611427655	0.116119388757
0	5030	46.723730816412	0.141005785088
0	5037	46.8647366015	0.036664423493
0	5042	46.901401024993	0.083337247198
0	5047	46.984738272191	0.021607329542
0	5052	47.006345601733	0.027907872176
0	5057	47.034253473909	0.005078131173
0	5059	47.039331605082	0.019753589524
0	5067	47.059085194606	0.017489430738
0	5072	47.076574625344	0.064706400024
0	5077	47.141281025368	0.018122787621
0	5082	47.159403812989	0.153026925004
0	5087	47.312430737993	0.072102712062
0	5093	47.384533450055	0.039249827828
0	5099	47.423783277883	0.005113622205
0	5101	47.428896900088	0.073753649629
0	5109	47.502650549717	0.143025436749
0	5115	47.645675986466	0.123663358417
0	5121	47.769339344883	0.075427737706
0	5126	47.844767082589	0.072596807189
0	5131	47.917363889778	0.103222313402
0	5137	48.02058620318	0.105046709893
0	5143	48.125632913073	0.071905786604
0	5148	48.197538699677	0.107671933397
0	5153	48.305210633074	0.036928086615
0	5158	48.342138719689	0.081536135524
0	5163	48.423674855213	0.036294917893
0	5169	48.459969773106	0.062517034875
0	5174	48.522486807981	0.081070189346
0	5179	48.603556997327	0.123257212159
0	5186	48.726814209486	0.308449035204
0	5196	49.03526324469	0.020261031207
0	5201	49.055524275897	0.058529416385
0	5207	49.114053692282	0.037036136123
0	5212	49.151089828405	0.052834735625
0	5217	49.20392456403	0.053207503843
0	5222	49.257132067873	0.005155817355
0	5224	49.262287885228	0.009248708441
0	5229	49.271536593669	0.039964879407
0	5237	49.311501473076	0.013876310372
0	5242	49.325377783448	0.08683743361
0	5247	49.412215217058	0.03512489257
0	5252	49.447340109628	0.097934570355
0	5258	49.545274679983	0.033968447293
0	5263	49.579243127276	0.040354062014
0	5269	49.61959718929	0.008136428892
0	5274	49.627733618182	0.049233877677
0	5279	49.676967495859	0.025547610927
0	5284	49.702515106786	0.034691709759
0	5289	49.737206816545	0.058978222776
0	5294	49.796185039321	0.069637428091
0	5300	49.865822467412	0.029216989749
0	5305	49.895039457161	0.117827207387
0	5310	50.012866664548	0.00097421819
0	5312	50.013840882738	0.029902826494
0	5320	50.043743709232	0.117950445553
0	5326	50.161694154785	0.104170794915
0	5331	50.2658649497	0.198414411078
0	5337	50.464279360778	0.03663431794
0	5343	50.500913678718	0.024392994919
0	5348	50.525306673637	0.098960208764
0	5353	50.624266882401	0.005324778012
0	5355	50.629591660413	0.010187234603
0	5360	50.639778895016	0.074685586914
0	5368	50.71446448193	0.116004183988
0	5373	50.830468665918	0.014549557218
0	5378	50.845018223136	0.008147638691
0	5383	50.853165861827	0.002438379185
0	5385	50.855604241012	0.043677058905
0	5393	50.899281299917	0.012821567001
0	5398	50.912102866918	0.022097759655
0	5403	50.934200626573	0.081512888965
0	5409	51.015713515538	0.046006278438
0	5415	51.061719793976	0.071665997672
0	5421	51.133385791648	0.041782615559
0	5427	51.175168407207	0.071469551611
0	5432	51.246637958818	0.042776394356
0	5438	51.289414353174	0.082205090701
0	5443	51.371619443875	0.141595262283
0	5448	51.513214706158	0.044358581967
0	5453	51.557573288125	0.085977302025
0	5458	51.64355059015	0.055134070001
0	5463	51.698684660151	0.018663572121
0	5468	51.717348232272	0.209291279363
0	5473	51.926639511635	0.009251252167
0	5479	51.935890763802	0.036491281782
0	5484	51.972382045584	0.083813488728
0	5490	52.056195534312	0.008480363193
0	5495	52.064675897505	0.092442977481
0	5501	52.157118874986	0.122599063423
0	5506	52.279717938409	0.236397309733
0	5512	52.516115248142	0.040459223223
0	5518	52.556574471365	0.010892205933
0	5523	52.567466677298	0.09751023376
0	5529	52.664976911058	0.032554879844
0	5535	52.697531790902	0.088436141398
0	5542	52.7859679323	0.134311922536
0	5548	52.920279854836	0.05093085971
0	5553	52.971210714546	0.132578469997
0	5559	53.103789184543	0.01791051422
0	5564	53.121699698763	0.01610912753
0	5569	53.137808826293	0.027793285293
0	5574	53.165602111586	0.019627931064
0	5579	53.18523004265	0.011879980492
0	5584	53.197110023142	0.082858581549
0	5589	53.279968604691	0.040311231904
0	5594	53.320279836595	0.053131577405
0	5599	53.373411414	0.037677987053
0	5606	53.411089401053	0.024015908457
0	5611	53.43510530951	0.016918970708
0	5616	53.452024280218	0.048975172046
0	5621	53.500999452264	0.04176556372
0	5628	53.542765015984	0.012701034711
0	5633	53.555466050695	0.054702068438
0	5638	53.610168119133	0.092847545654
0	5645	53.703015664787	0.25713657867
0	5652	53.960152243457	0.165082810933
0	5659	54.12523505439	0.05084526801
0	5664	54.1760803224	0.081780403393
0	5670	54.257860725793	0.013912900941
0	5675	54.271773626734	0.026633121877
0	5680	54.298406748611	0.013226306107
0	5685	54.311633054718	0.050316716173
0	5690	54.361949770891	0.04816680602
0	5696	54.410116576911	0.056916004776
0	5701	54.467032581687	0.09637553285
0	5707	54.563408114537	0.06071560843
0	5712	54.624123722967	0.195418230632
0	5722	54.819541953599	0.004766677684
0	5724	54.824308631283	0.011724175789
0	5732	54.836032807072	0.118784568296
0	5738	54.954817375368	0.076539323677
0	5743	55.031356699045	0.08792989891
0	5750	55.119286597955	0.066686599716
0	5755	55.185973197671	0.023632604528
0	5760	55.209605802199	0.012393978566
0	5765	55.221999780765	0.270365936049
0	5770	55.492365716814	0.145924723907
0	5776	55.638290440721	0.081785981527
0	5782	55.720076422248	0.040557829174
0	5788	55.760634251422	0.025517529715
0	5793	55.786151781137	0.005096387155
0	5795	55.791248168292	0.033784411145
0	5803	55.825032579437	0.002454641026
0	5805	55.827487220463	0.008916158379
0	5810	55.836403378842	0.033818963901
0	5819	55.870222342743	0.025779565464
0	5824	55.896001908207	0.055020954928
0	5829	55.951022863135	0.003683546151
0	5831	55.954706409286	0.057142810935
0	5840	56.011849220221	0.007719329201
0	5842	56.019568549422	0.017603418348
0	5850	56.03717196777	0.048844879322
0	5855	56.086016847092	0.114510957734
0	5862	56.200527804826	0.049192697334
0	5867	56.24972050216	0.244097256466
0	5874	56.493817758626	0.052017810038
0	5879	56.545835568664	0.027129551073
0	5886	56.572965119737	0.008461435408
0	5891	56.581426555145	0.005515906543
0	5893	56.586942461688	0.168701501689
0	5902	56.755643963377	0.0350084163
0	5907	56.790652379677	0.012977938085
0	5912	56.803630317762	0.023528181672
0	5918	56.827158499434	0.019918329692
0	5923	56.847076829126	0.059254297756
0	5928	56.906331126882	0.040219679022
0	5933	56.946550805904	0.15473001498
0	5940	57.101280820884	0.074198434877
0	5945	57.175479255761	0.02691668604
0	5950	57.202395941801	0.099407329265
0	5955	57.301803271066	0.033489065839
0	5960	57.335292336905	0.044718076465
0	5965	57.38001041337	0.031678698154
0	5970	57.411689111524	0.049841223495
0	5975	57.461530335019	0.100170647635
0	5982	57.561700982654	0.052599812717
0	5987	57.614300795371	0.015549143285
0	5992	57.629849938656	0.143837600125
0	5997	57.773687538781	0.035709829115
0	6002	57.809397367896	0.011323679353
0	6007	57.820721047249	0.05998018453
0	6012	57.880701231779	0.019070192382
0	6017	57.899771424161	0.030070647743
0	6023	57.929842071904	0.003602557244
0	6025	57.933444629148	0.036898656932
0	6033	57.97034328608	0.040204887645
0	6038	58.010548173725	0.028941149728
0	6043	58.039489323453	0.038828662707
0	6048	58.07831798616	0.004651905215
0	6050	58.082969891375	0.01330943175
0	6058	58.096279323125	0.006697276581
0	6060	58.102976599706	0.176967142576
0	6068	58.279943742282	0.117816809404
0	6074	58.397760551686	0.028886020157
0	6080	58.426646571843	0.028497871836
0	6085	58.455144443679	0.03768544481
0	6090	58.492829888489	0.170175837013
0	6096	58.663005725502	0.053598190507
0	6102	58.716603916009	0.107393601182
0	6108	58.823997517191	0.036988648347
0	6113	58.860986165538	0.132143209002
0	6119	58.99312937454	0.090099786553
0	6124	59.083229161093	0.099479897395
0	6131	59.182709058488	0.029736383125
0	6136	59.212445441613	0.08623548036
0	6141	59.298680921973	0.070219524401
0	6146	59.368900446374	0.050522681643
0	6151	59.419423128017	0.112030528658
0	6158	59.531453656675	0.002153170157
0	6160	59.533606826832	0.013439259138
0	6165	59.54704608597	0.105319902056
0	6173	59.652365988026	0.088787343486
0	6178	59.741153331512	0.049334594312
0	6185	59.790487925824	0.036396541732
0	6190	59.826884467556	0.005556867307
0	6192	59.832441334863	0.030658644559
0	6200	59.863099979422	0.031326000448
0	6206	59.89442597987	0.057130094899
0	6211	59.951556074769	0.046354706728
0	6217	59.997910781497	0.137348823549
0	6224	60.135259605046	0.020949150149
0	6229	60.156208755195	0.045811508531
0	6234	60.202020263726	0.001896662017
0	6237	60.203916925743	0.006267108789
0	6242	60.210184034532	0.000756216264
0	6244	60.210940250796	0.024434008021
0	6255	60.235374258817	0.041997812088
0	6261	60.277372070905	0.129083320941
0	6266	60.406455391846	0.090073533593
0	6271	60.496528925439	0.030469181052
0	6276	60.526998106491	0.020720993536
0	6281	60.547719100027	0.028389348816
0	6286	60.576108448843	0.002802285204
0	6288	60.578910734047	0.00984013646
0	6293	60.588750870507	0.015877820138
0	6301	60.604628690645	1.5076905e-05
0	6303	60.60464376755	0.01463947071
0	6308	60.61928323826	0.1908010607
0	6317	60.81008429896	0.072418706814
0	6322	60.882503005774	0.031705012212
0	6327	60.914208017986	0.02444891147
0	6332	60.938656929456	0.045304417508
0	6337	60.983961346964	0.016612083734
0	6342	61.000573430698	0.017969884457
0	6347	61.018543315155	0.011479458002
0	6352	61.030022773157	0.081744008163
0	6357	61.11176678132	0.040709479821
0	6362	61.152476261141	0.007039785532
0	6364	61.159516046673	0.065504126566
0	6374	61.225020173239	0.039164229713
0	6379	61.264184402952	0.017317654537
0	6384	61.281502057489	0.033321039549
0	6389	61.314823097038	0.007770366451
0	6394	61.322593463489	0.071241215906
0	6399	61.393834679395	0.087600153916
0	6405	61.481434833311	3.2912757e-05
0	6407	61.481467746068	0.082998158724
0	6415	61.564465904792	0.022887847442
0	6420	61.587353752234	0.038064046306
0	6427	61.62541779854	0.007188925964
0	6429	61.632606724504	0.010945931067
0	6437	61.643552655571	0.044039846025
0	6442	61.687592501596	0.036199135648
0	6447	61.723791637244	0.033886016014
0	6452	61.757677653258	0.028473538999
0	6458	61.786151192257	0.084632813962
0	6464	61.870784006219	0.059633997983
0	6469	61.930418004202	0.026234558729
0	6474	61.956652562931	0.008122347544
0	6479	61.964774910475	0.104552528379
0	6486	62.069327438854	0.188952994877
0	6491	62.258280433731	0.038149993737
0	6497	62.296430427468	0.054073506546
0	6503	62.350503934014	0.051110723688
0	6510	62.401614657702	0.143775058774
0	6516	62.545389716476	0.001688539892
0	6518	62.547078256368	0.019507572737
0	6526	62.566585829105	0.023489624061
0	6531	62.590075453166	0.050477162085
0	6537	62.640552615251	0.006278127123
0	6539	62.646830742374	0.008209474097
0	6545	62.655040216471	0.104783402394
0	6555	62.759823618865	0.039994828502
0	6560	62.799818447367	0.049130194554
0	6565	62.848948641921	0.316364021955
0	6571	63.165312663876	0.030466797798
0	6576	63.195779461674	0.069907438831
0	6581	63.265686900505	0.013579591352
0	6587	63.279266491857	0.078311616978
0	6592	63.357578108835	0.048604696944
0	6597	63.406182805779	0.140170400622
0	6603	63.546353206401	0.067456186851
0	6610	63.613809393252	0.074746818296
0	6615	63.688556211548	0.013676942863
0	6620	63.702233154411	0.038769819981
0	6625	63.741002974392	0.008428768444
0	6630	63.749431742836	0.109308284354
0	6637	63.85874002719	0.02010147818
0	6642	63.87884150537	0.041076822057
0	6647	63.919918327427	0.212544008306
0	6654	64.132462335733	0.001604083173
0	6656	64.134066418906	0.071284060788
0	6664	64.205350479694	0.01993520567
0	6670	64.225285685364	0.016090162249
0	6675	64.241375847613	0.149737160187
0	6682	64.3911130078	0.030047833507
0	6688	64.421160841307	0.045933295634
0	6694	64.467094136941	0.032687606233
0	6700	64.499781743174	0.015576458948
0	6705	64.515358202122	0.043862216814
0	6710	64.559220418936	0.025670908941
0	6715	64.584891327877	0.054613386704
0	6721	64.639504714581	0.025606878513
0	6727	64.665111593094	0.004950655451
0	6729	64.670062248545	0.042681173121
0	6737	64.712743421666	0.056708744923
0	6743	64.769452166589	0.078236927122
0	6748	64.847689093711	0.13407361977
0	6754	64.981762713481	0.059995290564
0	6760	65.041758004045	0.012079720871
0	6765	65.053837724916	0.002562665421
0	6767	65.056400390337	0.055620557427
0	6775	65.112020947764	0.219316510696
0	6782	65.33133745846	0.053553330308
0	6787	65.384890788768	0.116552620006
0	6792	65.501443408774	0.00366664256
0	6794	65.505110051334	0.111711300192
0	6803	65.616821351526	0.040884488198
0	6810	65.657705839724	0.006357442592
0	6812	65.664063282316	0.16370976049
0	6820	65.827773042806	0.015002795692
0	6825	65.842775838498	0.01404406522
0	6830	65.856819903718	0.073195759068
0	6835	65.930015662786	0.132374006137
0	6841	66.062389668923	0.045571238244
0	6847	66.107960907167	0.118358916386
0	6853	66.226319823553	0.005454579596
0	6855	66.231774403149	0.05625381365
0	6863	66.288028216799	0.068056360895
0	6868	66.356084577694	0.040367883388
0	6873	66.396452461082	0.046097323515
0	6878	66.442549784597	0.014045821074
0	6883	66.456595605671	0.04054049372
0	6889	66.497136099391	0.089368640708
0	6894	66.586504740099	0.019957301926
0	6899	66.606462042025	0.133731663165
0	6905	66.74019370519	0.013157129578
0	6910	66.753350834768	0.026788105959
0	6915	66.780138940727	0.178452291555
0	6921	66.958591232282	0.075741571576
0	6926	67.034332803858	0.08561759702
0	6931	67.119950400878	0.08505145286
0	6938	67.205001853738	0.035708421029
0	6943	67.240710274767	0.014190256712
0	6948	67.254900531479	0.203762365242
0	6954	67.458662896721	0.082019219702
0	6959	67.540682116423	0.020380766185
0	6964	67.561062882608	0.123811184926
0	6970	67.684874067534	0.136096739171
0	6977	67.820970806705	0.009006905677
0	6982	67.829977712382	0.065862918417
0	6988	67.895840630799	0.017764883343
0	6993	67.913605514142	0.133413078723
0	7000	68.047018592865	0.054859242548
0	7005	68.101877835413	0.063120970896
0	7010	68.164998806309	0.044610957107
0	7015	68.209609763416	0.024297316058
0	7020	68.233907079474	0.054059754334
0	7026	68.287966833808	0.027036923196
0	7031	68.315003757004	0.027517555984
0	7036	68.342521312988	0.017113187473
0	7041	68.359634500461	0.03560182826
0	7046	68.395236328721	0.009122422621
0	7051	68.404358751342	0.071089526027
0	7057	68.475448277369	0.00285151046
0	7060	68.478299787829	0.031777386516
0	7068	68.510077174345	0.004828344883
0	7070	68.514905519228	0.066325440592
0	7078	68.58123095982	0.037594072318
0	7083	68.618825032138	0.082960908383
0	7090	68.701785940521	0.015657371504
0	7095	68.717443312025	0.010512929382
0	7100	68.727956241407	0.094436671652
0	7105	68.822392913059	0.045401805008
0	7110	68.867794718067	0.023011859092
0	7115	68.890806577159	0.017704070745
0	7120	68.908510647904	0.001488739348
0	7122	68.909999387252	0.014748157654
0	7130	68.924747544906	0.013008691152
0	7135	68.937756236058	0.00448085591
0	7137	68.942237091968	0.091189149544
0	7145	69.033426241512	0.055946825303
0	7151	69.089373066815	0.030165684736
0	7156	69.119538751551	0.062106035601
0	7161	69.181644787152	0.033513647267
0	7166	69.215158434419	0.033744245649
0	7171	69.248902680068	0.004811986367
0	7173	69.253714666435	0.033064825868
0	7181	69.286779492303	0.186193013568
0	7188	69.472972505871	0.033282809875
0	7193	69.506255315746	0.03954581841
0	7198	69.545801134156	0.029391362403
0	7203	69.575192496559	0.023266572298
0	7208	69.598459068857	0.038981093288
0	7213	69.637440162145	0.000278990859
0	7215	69.637719153004	0.162519566675
0	7223	69.800238719679	0.018188319188
0	7228	69.818427038867	0.00020484182
0	7230	69.818631880687	0.03650991178
0	7238	69.855141792467	0.011399394045
0	7243	69.866541186512	0.064825852367
0	7249	69.931367038879	0.023949282511
0	7254	69.95531632139	0.027317801718
0	7260	69.982634123108	0.064187267978
0	7265	70.046821391086	0.001482071575
0	7267	70.048303462661	0.04781520849
0	7275	70.096118671151	0.028038536424
0	7280	70.124157207575	0.008680787076
0	7286	70.132837994651	0.002496259217
0	7288	70.135334253868	0.013436328474
0	7293	70.148770582342	0.041517781034
0	7302	70.190288363376	0.030497078832
0	7307	70.220785442208	0.016939475103
0	7312	70.237724917311	0.096975387576
0	7320	70.334700304887	0.089841563668
0	7325	70.424541868555	0.115294907851
0	7331	70.539836776406	0.082018318192
0	7336	70.621855094598	0.035019356373
0	7342	70.656874450971	0.009484853483
0	7347	70.666359304454	0.011819059001
0	7352	70.678178363455	0.015531120667
0	7357	70.693709484122	0.01701287923
0	7362	70.710722363352	0.011805077428
0	7367	70.72252744078	0.117647808691
0	7373	70.840175249471	0.051549407997
0	7381	70.891724657468	0.01259108547
0	7386	70.904315742938	0.005011635826
0	7388	70.909327378764	0.030731226121
0	7396	70.940058604885	0.098142940051
0	7402	71.038201544936	0.042900334343
0	7408	71.081101879279	0.010858550202
0	7413	71.091960429481	0.087346738679
0	7419	71.17930716816	0.008878495193
0	7424	71.188185663353	0.02839689648
0	7429	71.216582559833	0.063144289505
0	7436	71.279726849338	0.027213739869
0	7441	71.306940589207	0.149195905498
0	7447	71.456136494705	0.045837707837
0	7453	71.501974202542	0.052192848698
0	7458	71.55416705124	0.025221199684
0	7464	71.579388250924	0.014435679136
0	7469	71.59382393006	0.024641846145
0	7475	71.618465776205	0.022193069121
0	7481	71.640658845326	0.070661166016
0	7486	71.711320011342	0.06996676035
0	7492	71.781286771692	0.034334346258
0	7499	71.81562111795	0.053240754309
0	7504	71.868861872259	0.065363513635
0	7509	71.934225385894	0.000188947486
0	7511	71.93441433338	0.261001265408
0	7520	72.195415598788	0.074841715174
0	7527	72.270257313962	0.016848524028
0	7532	72.28710583799	0.062319063809
0	7538	72.349424901799	0.031453554351
0	7545	72.38087845615	0.00488161216
0	7547	72.38576006831	9.0401758e-05
0	7549	72.385850470068	0.016932934304
0	7557	72.402783404372	0.019610328186
0	7566	72.422393732558	0.05289977762
0	7572	72.475293510178	0.006128435463
0	7574	72.481421945641	0.04913361117
0	7582	72.530555556811	0.003955259977
0	7584	72.534510816788	0.012211554523
0	7592	72.546722371311	0.024352682352
0	7597	72.571075053663	0.013912273602
0	7602	72.584987327265	0.047323115889
0	7607	72.632310443154	0.078884390537
0	7612	72.711194833691	0.161274618887
0	7617	72.872469452578	0.003199557967
0	7619	72.875669010545	0.016061563488
0	7627	72.891730574033	0.092506856617
0	7632	72.98423743065	0.201149893157
0	7638	73.185387323807	0.004784531518
0	7640	73.190171855325	0.011770005694
0	7649	73.201941861019	0.194430679832
0	7658	73.396372540851	0.027185229696
0	7663	73.423557770547	0.022773029102
0	7668	73.446330799649	0.007371670285
0	7670	73.453702469934	0.037926160623
0	7678	73.491628630557	0.007299818199
0	7681	73.498928448756	0.001462942152
0	7686	73.500391390908	0.009968087746
0	7691	73.510359478654	0.040423166046
0	7699	73.5507826447	0.010767788915
0	7704	73.561550433615	0.033396607722
0	7710	73.594947041337	0.007268154388
0	7712	73.602215195725	0.087292261066
0	7720	73.689507456791	0.004385230095
0	7722	73.693892686886	0.068998693785
0	7731	73.762891380671	0.010317127564
0	7736	73.773208508235	0.120182414733
0	7744	73.893390922968	0.077932872811
0	7750	73.971323795779	0.090030875996
0	7755	74.061354671775	0.125821048919
0	7760	74.187175720694	0.040070768598
0	7765	74.227246489292	0.048174079852
0	7771	74.275420569144	0.020129591077
0	7777	74.295550160221	0.017452478859
0	7782	74.31300263908	0.018613668066
0	7787	74.331616307146	0.18446852905
0	7792	74.516084836196	0.046028476481
0	7797	74.562113312677	0.041880094504
0	7803	74.603993407181	0.003409267028
0	7805	74.607402674209	0.052896163034
0	7813	74.660298837243	0.046060246807
0	7818	74.70635908405	0.041745537474
0	7823	74.748104621524	0.027483037793
0	7829	74.775587659317	0.290258918614
0	7835	75.065846577931	0.098050859594
0	7840	75.163897437525	0.035696503005
0	7845	75.19959394053	0.127216797511
0	7851	75.326810738041	0.051400275587
0	7856	75.378211013628	0.002456690291
0	7858	75.380667703919	0.024968190431
0	7867	75.40563589435	0.045917881722
0	7872	75.451553776072	0.322694632117
0	7877	75.774248408189	0.032543318434
0	7882	75.806791726623	0.00479666496
0	7885	75.811588391583	0.006033665923
0	7890	75.817622057506	0.030705608155
0	7898	75.848327665661	0.043360508883
0	7903	75.891688174544	0.034817499004
0	7908	75.926505673548	0.172734785648
0	7915	76.099240459196	0.156018689995
0	7921	76.255259149191	0.022537072203
0	7926	76.277796221394	0.045732062271
0	7931	76.323528283665	0.003026312031
0	7933	76.326554595696	0.15185814883
0	7942	76.478412744526	0.036285798223
0	7947	76.514698542749	0.006896622844
0	7949	76.521595165593	0.021638036879
0	7957	76.543233202472	0.025160876312
0	7963	76.568394078784	0.165645143293
0	7969	76.734039222077	0.008605578771
0	7974	76.742644800848	0.091971483291
0	7980	76.834616284139	0.021291068572
0	7985	76.855907352711	0.014553404906
0	7990	76.870460757617	0.024863375676
0	7995	76.895324133293	0.058878817334
0	8001	76.954202950627	0.009928420473
0	8006	76.9641313711	0.006768307095
0	8008	76.970899678195	0.039239550613
0	8016	77.010139228808	0.011099412628
0	8021	77.021238641436	0.002998194542
0	8023	77.024236835978	0.006348908434
0	8028	77.030585744412	0.117576496158
0	8042	77.14816224057	0.044850014248
0	8048	77.193012254818	0.011432263115
0	8053	77.204444517933	0.141106874625
0	8060	77.345551392558	0.04955776108
0	8065	77.395109153638	0.01906193788
0	8070	77.414171091518	0.010536663896
0	8075	77.424707755414	0.062496211514
0	8080	77.487203966928	0.016631161814
0	8085	77.503835128742	0.093745623412
0	8091	77.597580752154	0.048621792717
0	8097	77.646202544871	0.005187231863
0	8099	77.651389776734	0.081933454112
0	8107	77.733323230846	0.021321118043
0	8114	77.754644348889	0.018434650991
0	8119	77.77307899988	0.049917873064
0	8124	77.822996872944	0.027590058478
0	8130	77.850586931422	0.066513639154
0	8135	77.917100570576	0.024035878502
0	8141	77.941136449078	0.039084245442
0	8146	77.98022069452	0.022625103689
0	8152	78.002845798209	0.013092220508
0	8157	78.015938018717	0.060937926189
0	8162	78.076875944906	0.186819910219
0	8167	78.263695855125	0.116021235727
0	8173	78.379717090852	0.014959889672
0	8178	78.394676980524	0.020741520969
0	8183	78.415418501493	0.00304331996
0	8185	78.418461821453	0.014881023014
0	8193	78.433342844467	0.039512391392
0	8198	78.472855235859	0.169106130427
0	8204	78.641961366286	0.01932827954
0	8209	78.661289645826	0.037725160063
0	8214	78.699014805889	0.132712007108
0	8220	78.831726812997	0.029749265587
0	8225	78.861476078584	0.047923802179
0	8230	78.909399880763	0.000539229293
0	8232	78.909939110056	0.207146592778
0	8244	79.117085702834	0.028567614706
0	8249	79.14565331754	0.048511042348
0	8254	79.194164359888	0.004831682647
0	8256	79.198996042535	0.035479231928
0	8265	79.234475274463	0.0019529666
0	8267	79.236428241063	0.053720813638
0	8275	79.290149054701	0.020959180445
0	8280	79.311108235146	0.009918969632
0	8285	79.321027204778	0.044905309584
0	8290	79.365932514362	0.170020805656
0	8296	79.535953320018	0.039294658352
0	8302	79.57524797837	0.054285091921
0	8307	79.629533070291	0.044361272529
0	8312	79.67389434282	0.1006596868
0	8318	79.77455402962	0.013062596478
0	8323	79.787616626098	0.046592260929
0	8328	79.834208887027	0.075198983789
0	8333	79.909407870816	0.012692645416
0	8338	79.922100516232	0.296507349398
0	8344	80.21860786563	0.002244089632
0	8346	80.220851955262	0.105853489607
0	8354	80.326705444869	0.024413207473
0	8359	80.351118652342	0.085217266844
0	8364	80.436335919186	0.025504650183
0	8369	80.461840569369	0.069505793478
0	8374	80.531346362847	0.157865722897
0	8380	80.689212085744	0.017141816514
0	8385	80.706353902258	0.065112471906
0	8391	80.771466374164	0.030930900477
0	8396	80.802397274641	0.101938571566
0	8401	80.904335846207	0.047397063446
0	8406	80.951732909653	0.025005446022
0	8411	80.976738355675	0.04341802195
0	8416	81.020156377625	0.126482228188
0	8421	81.146638605813	0.024681906265
0	8426	81.171320512078	0.035155675486
0	8431	81.206476187564	0.014229504508
0	8436	81.220705692072	0.00365980241
0	8438	81.224365494482	0.170185236225
0	8447	81.394550730707	0.036941832048
0	8452	81.431492562755	0.007489687564
0	8454	81.438982250319	0.034432405787
0	8462	81.473414656106	0.073256465596
0	8468	81.546671121702	0.014525034018
0	8473	81.56119615572	0.03455462837
0	8478	81.59575078409	0.029199770226
0	8483	81.624950554316	0.057469582947
0	8489	81.682420137263	0.085443176589
0	8494	81.767863313852	0.019224994529
0	8499	81.787088308381	0.015847932019
0	8504	81.8029362404	0.088205193695
0	8509	81.891141434095	0.007819883014
0	8511	81.898961317109	0.018061623465
0	8519	81.917022940574	0.07296312112
0	8526	81.989986061694	0.009714041963
0	8531	81.999700103657	0.021183459049
0	8536	82.020883562706	0.034410176522
0	8541	82.055293739228	0.017608400869
0	8546	82.072902140097	0.018088719679
0	8551	82.090990859776	0.140237883772
0	8558	82.231228743548	0.007976827331
0	8560	82.239205570879	0.004819598226
0	8565	82.244025169105	0.30424965902
0	8574	82.548274828125	0.086606476999
0	8580	82.634881305124	0.072702443139
0	8586	82.707583748263	0.07086571287
0	8591	82.778449461133	0.116842351266
0	8597	82.895291812399	0.005389474699
0	8599	82.900681287098	0.012330162503
0	8607	82.913011449601	0.023995120674
0	8612	82.937006570275	0.011032484002
0	8617	82.948039054277	0.038601626851
0	8623	82.986640681128	0.079559679699
0	8629	83.066200360827	0.008013815973
0	8632	83.0742141768	0.013104860302
0	8640	83.087319037102	0.053089488623
0	8645	83.140408525725	0.011113604691
0	8650	83.151522130416	0.012985591074
0	8655	83.16450772149	0.042558096632
0	8660	83.207065818122	0.037330566557
0	8665	83.244396384679	0.06044204282
0	8671	83.304838427499	0.022344255203
0	8677	83.327182682702	0.238956814897
0	8683	83.566139497599	0.124400277714
0	8688	83.690539775313	0.009229046683
0	8693	83.699768821996	0.041258447844
0	8698	83.74102726984	0.009589043671
0	8703	83.750616313511	0.02930220188
0	8711	83.779918515391	0.010995216094
0	8716	83.790913731485	0.1167685595
0	8725	83.907682290985	0.22996532635
0	8730	84.137647617335	0.042275322245
0	8735	84.17992293958	0.011382400596
0	8740	84.191305340176	0.03311697697
0	8745	84.224422317146	0.047788500757
0	8751	84.272210817903	0.035837976899
0	8756	84.308048794802	0.013991572439
0	8761	84.322040367241	0.007830181973
0	8766	84.329870549214	0.046578882415
0	8771	84.376449431629	0.007318691071
0	8776	84.3837681227	0.190694248878
0	8783	84.574462371578	0.184022633289
0	8789	84.758485004867	0.065667378378
0	8794	84.824152383245	0.033470764238
0	8799	84.857623147483	0.037338600073
0	8804	84.894961747556	0.089069412846
0	8812	84.984031160402	0.019446646073
0	8817	85.003477806475	0.012396550034
0	8822	85.015874356509	0.1962614017
0	8831	85.212135758209	0.065015917928
0	8836	85.277151676137	0.014956271177
0	8842	85.292107947314	0.014739081851
0	8847	85.306847029165	0.001433010285
0	8849	85.30828003945	0.026208902374
0	8857	85.334488941824	0.048254711407
0	8863	85.382743653231	0.057077272275
0	8869	85.439820925506	0.023784558702
0	8874	85.463605484208	0.042047032707
0	8879	85.505652516915	0.023773827257
0	8884	85.529426344172	0.053079602506
0	8889	85.582505946678	0.047646406936
0	8895	85.630152353614	0.015091037732
0	8900	85.645243391346	0.136772026819
0	8907	85.782015418165	0.095774433706
0	8912	85.877789851871	0.043540171494
0	8917	85.921330023365	0.014304075187
0	8923	85.935634098552	0.061225945673
0	8931	85.996860044225	0.003150054669
0	8933	86.000010098894	0.032995866138
0	8941	86.033005965032	0.018276507981
0	8946	86.051282473013	0.066441843214
0	8952	86.117724316227	0.00860775174
0	8957	86.126332067967	0.01161199456
0	8962	86.137944062527	0.00927493416
0	8968	86.147218996687	0.014265889423
0	8973	86.16148488611	0.184851620203
0	8979	86.346336506313	0.093384419071
0	8984	86.439720925384	0.031981166132
0	8989	86.471702091516	0.020127470595
0	8994	86.491829562111	0.031485114999
0	8999	86.52331467711	0.091328634126
0	9004	86.614643311236	0.053542713994
0	9010	86.66818602523	0.006138988786
0	9012	86.674325014016	0.010959465448
0	9020	86.685284479464	0.101155309624
0	9026	86.786439789088	0.02467111892
0	9031	86.811110908008	0.128743402072
0	9036	86.93985431008	0.019939155876
0	9041	86.959793465956	0.116933351545
0	9047	87.076726817501	0.00206541465
0	9049	87.078792232151	0.002152286328
0	9051	87.080944518479	0.024681981962
0	9062	87.105626500441	0.046459585521
0	9068	87.152086085962	0.024661662296
0	9073	87.176747748258	0.012179693824
0	9078	87.188927442082	0.064533546606
0	9084	87.253460988688	0.008244759453
0	9090	87.261705748141	0.039736853945
0	9096	87.301442602086	0.060810495087
0	9101	87.362253097173	0.118552881092
0	9108	87.480805978265	0.010537230705
0	9113	87.49134320897	0.061348938473
0	9118	87.552692147443	0.008909291536
0	9123	87.561601438979	0.08197519032
0	9130	87.643576629299	0.03657246081
0	9136	87.680149090109	0.000313474646
0	9138	87.680462564755	0.051120949654
0	9146	87.731583514409	0.025580359726
0	9153	87.757163874135	0.008858106291
0	9158	87.766021980426	0.044565358532
0	9163	87.810587338958	0.04145480095
0	9169	87.852042139908	0.058273648438
0	9174	87.910315788346	0.002812354149
0	9176	87.913128142495	0.022490345719
0	9184	87.935618488214	0.04364571054
0	9189	87.979264198754	0.046438317354
0	9194	88.025702516108	0.089585035528
0	9200	88.115287551636	0.032265429206
0	9206	88.147552980842	0.058254662624
0	9212	88.205807643466	0.062684335108
0	9217	88.268491978574	0.017475255931
0	9223	88.285967234505	0.033582606365
0	9229	88.31954984087	0.07673828425
0	9234	88.39628812512	0.059143428325
0	9239	88.455431553445	0.000875889408
0	9241	88.456307442853	0.0753015305
0	9249	88.531608973353	0.040857309432
0	9255	88.572466282785	0.055943589251
0	9260	88.628409872036	0.090458694294
0	9265	88.71886856633	0.073795596363
0	9271	88.792664162693	0.002028917354
0	9273	88.794693080047	0.013958111515
0	9281	88.808651191562	0.088573341944
0	9286	88.897224533506	0.000632099232
0	9288	88.897856632738	0.00087690089
0	9290	88.898733533628	0.02925278227
0	9301	88.927986315898	0.078987312478
0	9306	89.006973628376	0.008077840279
0	9311	89.015051468655	0.044245107038
0	9316	89.059296575693	0.081021064365
0	9321	89.140317640058	0.096205394219
0	9328	89.236523034277	0.063726330043
0	9333	89.30024936432	0.024684851095
0	9338	89.324934215415	0.027362398262
0	9343	89.352296613677	0.064196591684
0	9348	89.416493205361	0.010055544355
0	9353	89.426548749716	0.021266212764
0	9358	89.44781496248	0.001736292023
0	9360	89.449551254503	0.004486570203
0	9362	89.454037824706	0.056232770759
0	9373	89.510270595465	0.016241214356
0	9378	89.526511809821	0.093708789101
0	9384	89.620220598922	0.051110274462
0	9389	89.671330873384	0.140796173119
0	9395	89.812127046503	0.016090784353
0	9400	89.828217830856	0.01587352379
0	9405	89.844091354646	0.101957009995
0	9410	89.946048364641	0.07760717898
0	9415	90.023655543621	0.00362460035
0	9417	90.027280143971	0.077065399346
0	9425	90.104345543317	0.067175308578
0	9431	90.171520851895	0.180473092216
0	9437	90.351993944111	0.005432199038
0	9439	90.357426143149	0.066904845871
0	9447	90.42433098902	0.057129008485
0	9452	90.481459997505	0.004464958639
0	9455	90.485924956144	0.031927300859
0	9463	90.517852257003	0.04174065534
0	9470	90.559592912343	0.000933606331
0	9472	90.560526518674	0.098234800874
0	9480	90.658761319548	0.123240746097
0	9487	90.782002065645	0.090451779837
0	9495	90.872453845482	0.035295087988
0	9500	90.90774893347	0.027604971367
0	9505	90.935353904837	0.00671114922
0	9507	90.942065054057	0.024560342993
0	9515	90.96662539705	0.046793137097
0	9520	91.013418534147	0.012859636625
0	9525	91.026278170772	0.026464602658
0	9531	91.05274277343	0.001025366284
0	9533	91.053768139714	0.035929033604
0	9541	91.089697173318	0.017139831575
0	9546	91.106837004893	0.007219353336
0	9548	91.114056358229	0.001786820249
0	9553	91.115843178478	0.061155595499
0	9561	91.176998773977	0.002196805876
0	9563	91.179195579853	0.003128289362
0	9565	91.182323869215	0.06131382215
0	9576	91.243637691365	0.045716200111
0	9581	91.289353891476	0.163716631952
0	9586	91.453070523428	0.011811271421
0	9591	91.464881794849	0.019159203193
0	9596	91.484040998042	0.146003112015
0	9603	91.630044110057	0.057216501157
0	9608	91.687260611214	0.024262330849
0	9613	91.711522942063	0.023339862802
0	9618	91.734862804865	0.032768120558
0	9623	91.767630925423	0.134074456389
0	9630	91.901705381812	0.00086069515
0	9632	91.902566076962	0.169427251966
0	9641	92.071993328928	0.000608633857
0	9643	92.072601962785	0.004998117045
0	9645	92.07760007983	0.158048258705
0	9656	92.235648338535	0.039842367666
0	9661	92.275490706201	0.035576094288
0	9666	92.311066800489	0.047643005557
0	9672	92.358709806046	0.012532708426
0	9677	92.371242514472	0.007745431574
0	9682	92.378987946046	0.128173635493
0	9687	92.507161581539	0.030280774902
0	9693	92.537442356441	0.042291332693
0	9698	92.579733689134	0.044253139081
0	9703	92.623986828215	0.022060452285
0	9709	92.6460472805	0.005883882719
0	9711	92.651931163219	0.04671601004
0	9719	92.698647173259	0.016782772322
0	9724	92.715429945581	0.034245916828
0	9730	92.749675862409	0.001015577034
0	9732	92.750691439443	0.151968372267
0	9740	92.90265981171	0.046177790074
0	9747	92.948837601784	0.024722903116
0	9752	92.9735605049	0.004551944314
0	9754	92.978112449214	0.003111531956
0	9756	92.98122398117	0.019496213309
0	9768	93.000720194479	0.013679131421
0	9774	93.0143993259	0.016286197904
0	9779	93.030685523804	0.038141723654
0	9784	93.068827247458	0.208234932178
0	9790	93.277062179636	0.007851187063
0	9792	93.284913366699	0.0479156663
0	9800	93.332829032999	0.024344577038
0	9805	93.357173610037	0.181151475177
0	9811	93.538325085214	0.021421919072
0	9816	93.559747004286	0.062037162056
0	9821	93.621784166342	0.058990959652
0	9826	93.680775125994	0.134357488042
0	9831	93.815132614036	0.117249615165
0	9836	93.932382229201	0.007018031614
0	9838	93.939400260815	0.11215201004
0	9847	94.051552270855	0.032278927797
0	9852	94.083831198652	0.001853623631
0	9854	94.085684822283	0.009437835941
0	9859	94.095122658224	0.005148003849
0	9864	94.100270662073	0.018876942953
0	9872	94.119147605026	0.038085817402
0	9878	94.157233422428	0.022044314096
0	9884	94.179277736524	0.022765392073
0	9889	94.202043128597	0.026891235934
0	9895	94.228934364531	0.105049404582
0	9900	94.333983769113	0.005176063261
0	9902	94.339159832374	0.029474435619
0	9910	94.368634267993	0.046472233662
0	9917	94.415106501655	0.022803544086
0	9922	94.437910045741	0.026660120373
0	9928	94.464570166114	0.073840542638
0	9933	94.538410708752	0.024368821965
0	9938	94.562779530717	0.017766397173
0	9943	94.58054592789	0.003365335806
0	9945	94.583911263696	0.025124618094
0	9953	94.60903588179	0.013276460105
0	9958	94.622312341895	0.007069276937
0	9960	94.629381618832	0.058913930826
0	9968	94.688295549658	0.014245818737
0	9973	94.702541368395	0.090408184474
0	9978	94.792949552869	0.006058379244
0	9980	94.799007932113	0.00513249856
0	9985	94.804140430673	0.00882281357
0	9990	94.812963244243	0.072241086762
0	9998	94.885204331005	0.015391526293
0	10003	94.900595857298	0.082977744138
0	10008	94.983573601436	0.054284910815
0	10013	95.037858512251	0.003829318925
0	10015	95.041687831176	0.008759255365
0	10020	95.050447086541	0.008972179868
0	10025	95.059419266409	0.02652865672
0	10033	95.085947923129	0.025891820872
0	10038	95.111839744001	0.033926870129
0	10043	95.14576661413	0.033829441183
0	10048	95.179596055313	0.007643385871
0	10051	95.187239441184	0.028037287763
0	10059	95.215276728947	0.001768313221
0	10061	95.217045042168	0.011845510104
0	10066	95.228890552272	0.030539480194
0	10074	95.259430032466	0.027135384013
0	10079	95.286565416479	0.020146599207
0	10084	95.306712015686	0.016289676306
0	10089	95.323001691992	0.011632624725
0	10094	95.334634316717	0.053053800987
0	10099	95.387688117704	0.008095800142
0	10101	95.395783917846	0.024576421818
0	10110	95.420360339664	0.086595654623
0	10116	95.506955994287	0.038784639055
0	10123	95.545740633342	0.066288370621
0	10128	95.612029003963	0.005400522619
0	10130	95.617429526582	0.073616702016
0	10138	95.691046228598	0.058589146462
0	10144	95.74963537506	0.046400490306
0	10150	95.796035865366	0.045719613906
0	10155	95.841755479272	0.074562925684
0	10160	95.916318404956	0.210084319304
0	10166	96.12640272426	0.006445436818
0	10168	96.132848161078	0.010485766639
0	10176	96.143333927717	0.013116018236
0	10182	96.156449945953	0.077956761325
0	10187	96.234406707278	0.052134304886
0	10192	96.286541012164	0.037097985829
0	10197	96.323638997993	0.125939691348
0	10204	96.449578689341	0.019409531922
0	10210	96.468988221263	0.016008392146
0	10215	96.484996613409	0.06912745628
0	10220	96.554124069689	0.009554540567
0	10225	96.563678610256	0.052936327211
0	10231	96.616614937467	0.06728214033
0	10236	96.683897077797	0.037802282557
0	10241	96.721699360354	0.051809165019
0	10247	96.773508525373	0.01585577394
0	10252	96.789364299313	0.128935573731
0	10258	96.918299873044	0.055476697139
0	10263	96.973776570183	0.000708627627
0	10265	96.97448519781	0.095911378745
0	10274	97.070396576555	0.007298194439
0	10276	97.077694770994	0.065643688789
0	10284	97.143338459783	0.021146675449
0	10289	97.164485135232	0.009638872524
0	10294	97.174124007756	0.112482982555
0	10299	97.286606990311	0.036688474859
0	10306	97.32329546517	0.029069509718
0	10311	97.352364974888	0.077025957995
0	10318	97.429390932883	0.020708393485
0	10323	97.450099326368	0.01923780204
0	10328	97.469337128408	0.009184204344
0	10333	97.478521332752	0.047403868235
0	10338	97.525925200987	0.121470077846
0	10345	97.647395278833	0.029564753343
0	10351	97.676960032176	0.033110965493
0	10356	97.710070997669	0.031166465183
0	10361	97.741237462852	0.02677027216
0	10366	97.768007735012	0.034026875321
0	10371	97.802034610333	0.041265494486
0	10376	97.843300104819	0.078542142685
0	10381	97.921842247504	0.326150633653
0	10392	98.247992881157	0.02528098411
0	10397	98.273273865267	0.169746551193
0	10404	98.44302041646	0.077251337369
0	10409	98.520271753829	0.090056746903
0	10416	98.610328500732	0.006852794479
0	10418	98.617181295211	0.137129536381
0	10426	98.754310831592	0.029653712498
0	10431	98.78396454409	0.154451289787
0	10437	98.938415833877	0.02257535249
0	10442	98.960991186367	0.02780814964
0	10447	98.988799336007	0.027699973283
0	10453	99.01649930929	0.073717227912
0	10460	99.090216537202	0.242847451269
0	10468	99.333063988471	0.118389054656
0	10474	99.451453043127	0.11058970172
0	10480	99.562042744847	0.028903188662
0	10485	99.590945933509	0.235030707449
0	10494	99.825976640958	0.003686895585
0	10496	99.829663536543	0.012137754763
0	10504	99.841801291306	0.040845042492
0	10510	99.882646333798	0.002497210605
0	10512	99.885143544403	0.023722616752
0	10520	99.908866161155	0.096200930153
0	10526	100.005067091308	0.057663793781
0	10532	100.062730885089	0.061180519987
0	10537	100.123911405076	0.087243036564
0	10543	100.21115444164	0.07630764205
0	10548	100.28746208369	0.076221696478
0	10554	100.363683780168	0.006250598617
0	10556	100.369934378785	0.019780967296
0	10564	100.389715346081	0.039144053825
0	10569	100.428859399906	0.024704525722
0	10574	100.453563925628	0.086160036016
0	10579	100.539723961644	0.000182129714
0	10581	100.539906091358	0.04890645681
0	10589	100.588812548168	0.04273770765
0	10594	100.631550255818	0.012056934531
0	10599	100.643607190349	0.080931500309
0	10605	100.724538690658	0.012290585569
0	10610	100.736829276227	0.018040183706
0	10615	100.754869459933	0.082113688663
0	10620	100.836983148596	0.102283586288
0	10625	100.939266734884	0.036453581695
0	10631	100.975720316579	0.081038133276
0	10637	101.056758449855	0.00989206305
0	10642	101.066650512905	0.027406860729
0	10647	101.094057373634	0.0088586191
0	10652	101.102915992734	0.015330604271
0	10658	101.118246597005	0.047294788985
0	10664	101.16554138599	0.023785745394
0	10669	101.189327131384	0.028576462425
0	10674	101.217903593809	0.003869555424
0	10676	101.221773149233	0.009115672036
0	10681	101.230888821269	0.067995690309
0	10690	101.298884511578	0.04271760227
0	10695	101.341602113848	0.004100256157
0	10697	101.345702370005	0.043227585667
0	10705	101.388929955672	0.040667310967
0	10710	101.429597266639	0.017528316783
0	10715	101.447125583422	0.11681278484
0	10723	101.563938368262	0.006523974629
0	10725	101.570462342891	0.023302942326
0	10733	101.593765285217	0.018390164602
0	10738	101.612155449819	0.030949687884
0	10743	101.643105137703	0.000349638015
0	10745	101.643454775718	0.015232335009
0	10750	101.658687110727	0.044592880811
0	10758	101.703279991538	0.018696142725
0	10763	101.721976134263	0.084086622062
0	10768	101.806062756325	0.025096999241
0	10773	101.831159755566	0.065306289176
0	10779	101.896466044742	0.005982069892
0	10781	101.902448114634	0.073303956406
0	10789	101.97575207104	0.001630466386
0	10791	101.977382537426	0.016568686782
0	10800	101.993951224208	0.037899364502
0	10805	102.03185058871	0.055313641066
0	10812	102.087164229776	0.012532832322
0	10817	102.099697062098	0.018459954177
0	10822	102.118157016275	0.043481812176
0	10827	102.161638828451	0.018483719461
0	10832	102.180122547912	0.037361550193
0	10838	102.217484098105	0.042500173788
0	10843	102.259984271893	0.031939614992
0	10848	102.291923886885	0.002260441983
0	10850	102.294184328868	0.071840713034
0	10858	102.366025041902	0.008478087177
0	10860	102.374503129079	0.089902511572
0	10868	102.464405640651	0.01705121126
0	10873	102.481456851911	0.103852890566
0	10879	102.585309742477	0.068427847652
0	10885	102.653737590129	0.032146917535
0	10890	102.685884507664	0.076279882358
0	10895	102.762164390022	0.042694236927
0	10900	102.804858626949	0.0263748232
0	10905	102.831233450149	0.024259644053
0	10910	102.855493094202	0.04617432536
0	10915	102.901667419562	0.022772633554
0	10920	102.924440053116	0.132075451111
0	10926	103.056515504227	0.005462998084
0	10928	103.061978502311	0.088479194452
0	10937	103.150457696763	0.139411587458
0	10944	103.289869284221	0.048460968546
0	10950	103.338330252767	0.010426144445
0	10956	103.348756397212	0.0579559631
0	10961	103.406712360312	0.168785496414
0	10968	103.575497856726	0.101657038972
0	10974	103.677154895698	0.100354793571
0	10980	103.777509689269	0.174418843334
0	10986	103.951928532603	0.090336873805
0	10993	104.042265406408	0.037173780834
0	10998	104.079439187242	0.008457751191
0	11003	104.087896938433	0.019396097745
0	11008	104.107293036178	0.075854957366
0	11013	104.183147993544	0.038269573795
0	11019	104.221417567339	0.006922378241
0	11021	104.22833994558	0.008937387916
0	11026	104.237277333496	0.012253565494
0	11034	104.24953089899	0.03276556863
0	11039	104.28229646762	0.026989860824
0	11044	104.309286328444	0.004257889679
0	11046	104.313544218123	0.148241504958
0	11055	104.461785723081	0.059695887167
0	11060	104.521481610248	0.036043516483
0	11065	104.557525126731	0.043071957214
0	11070	104.600597083945	9.5969898e-05
0	11072	104.600693053843	0.034436762501
0	11081	104.635129816344	0.301540901176
0	11087	104.93667071752	0.061787878662
0	11093	104.998458596182	0.00338861773
0	11095	105.001847213912	0.007361397321
0	11100	105.009208611233	0.033508769507
0	11109	105.04271738074	0.004287781881
0	11111	105.047005162621	0.039864800146
0	11120	105.086869962767	0.050583375091
0	11125	105.137453337858	0.069159246751
0	11130	105.206612584609	0.056200631808
0	11135	105.262813216417	0.125961962947
0	11141	105.388775179364	0.157950754328
0	11149	105.546725933692	0.053180450126
0	11154	105.599906383818	0.083018885446
0	11159	105.682925269264	0.041492764105
0	11164	105.724418033369	0.221567060147
0	11175	105.945985093516	0.125205244506
0	11180	106.071190338022	0.073578232377
0	11187	106.144768570399	0.030840642812
0	11194	106.175609213211	0.108176696069
0	11200	106.28378590928	0.008946950397
0	11205	106.292732859677	0.017858908969
0	11210	106.310591768646	0.001821221255
0	11212	106.312412989901	0.062595068791
0	11221	106.375008058692	0.07478237297
0	11226	106.449790431662	0.032083036403
0	11231	106.481873468065	0.121412247071
0	11238	106.603285715136	0.041816289004
0	11243	106.64510200414	0.09396109137
0	11248	106.73906309551	0.02418638341
0	11253	106.76324947892	0.004122964902
0	11255	106.767372443822	0.026004919522
0	11263	106.793377363344	0.05183518152
0	11268	106.845212544864	0.021852524893
0	11273	106.867065069757	0.107725225945
0	11279	106.974790295702	0.080126581065
0	11286	107.054916876767	0.238623747378
0	11292	107.293540624145	0.031016885563
0	11298	107.324557509708	0.014196761991
0	11303	107.338754271699	0.04760011433
0	11309	107.386354386029	0.004737031887
0	11311	107.391091417916	0.022779873862
0	11319	107.413871291778	0.008556838041
0	11324	107.422428129819	0.094888473318
0	11329	107.517316603137	0.00369013094
0	11331	107.521006734077	0.169980199224
0	11339	107.690986933301	0.018727793553
0	11344	107.709714726854	0.03471267425
0	11349	107.744427401104	0.01872040673
0	11354	107.763147807834	0.030932923642
0	11360	107.794080731476	0.081633193744
0	11365	107.87571392522	0.044413289525
0	11372	107.920127214745	0.020674710287
0	11377	107.940801925032	0.029417149899
0	11382	107.970219074931	0.027858730392
0	11387	107.998077805323	0.048275286597
0	11392	108.04635309192	0.01175553008
0	11397	108.058108622	0.000740033447
0	11399	108.058848655447	0.110486936284
0	11407	108.169335591731	0.032352152663
0	11413	108.201687744394	0.034582937762
0	11418	108.236270682156	0.040116294207
0	11423	108.276386976363	0.110689417264
0	11430	108.387076393627	0.001945795437
0	11432	108.389022189064	0.038354616619
0	11440	108.427376805683	0.046055641696
0	11445	108.473432447379	0.063357130786
0	11450	108.536789578165	0.03133351925
0	11456	108.568123097415	0.044785348417
0	11461	108.612908445832	0.009519218892
0	11467	108.622427664724	0.108668757062
0	11472	108.731096421786	0.149985961724
0	11477	108.88108238351	0.082670337724
0	11482	108.963752721234	0.109984098575
0	11488	109.073736819809	0.000302210205
0	11490	109.074039030014	0.020832164637
0	11499	109.094871194651	0.008703344684
0	11504	109.103574539335	0.113108088343
0	11509	109.216682627678	0.056762470695
0	11515	109.273445098373	0.01379532341
0	11520	109.287240421783	0.043388144383
0	11525	109.330628566166	0.081356502259
0	11531	109.411985068425	0.081051583954
0	11539	109.493036652379	0.023304437248
0	11544	109.516341089627	0.008633272283
0	11549	109.52497436191	0.201389221726
0	11558	109.726363583636	0.086461998637
0	11564	109.812825582273	0.10929601003
0	11569	109.922121592303	0.090662406492
0	11574	110.012783998795	0.102753151001
0	11582	110.115537149796	0.009087899974
0	11587	110.12462504977	0.074712030058
0	11592	110.199337079828	0.05464836359
0	11597	110.253985443418	0.090555026949
0	11602	110.344540470367	0.020977623499
0	11607	110.365518093866	0.029775312524
0	11612	110.39529340639	0.063334463775
0	11618	110.458627870165	0.017929910944
0	11623	110.476557781109	0.003952399958
0	11625	110.480510181067	0.209085253348
0	11634	110.689595434415	0.032138343118
0	11640	110.721733777533	0.020881089192
0	11645	110.742614866725	0.003197793624
0	11647	110.745812660349	0.01722477862
0	11655	110.763037438969	0.021937457794
0	11660	110.784974896763	0.004614871403
0	11662	110.789589768166	0.140995542011
0	11672	110.930585310177	0.029537942776
0	11677	110.960123252953	0.037262036004
0	11682	110.997385288957	0.031437250532
0	11687	111.028822539489	0.03961675328
0	11692	111.068439292769	0.075791293868
0	11698	111.144230586637	0.001234343259
0	11700	111.145464929896	0.143572244457
0	11708	111.289037174353	0.046251871157
0	11714	111.33528904551	0.072481582725
0	11720	111.407770628235	0.316693118871
0	11726	111.724463747106	0.005076825503
0	11728	111.729540572609	0.014810201883
0	11736	111.744350774492	0.000854305973
0	11738	111.745205080465	0.056442538283
0	11746	111.801647618748	0.07825858955
0	11753	111.879906208298	0.01224949694
0	11758	111.892155705238	0.059603853596
0	11765	111.951759558834	0.017811054174
0	11770	111.969570613008	0.007947841705
0	11775	111.977518454713	0.052922660457
0	11780	112.03044111517	0.050815016476
0	11786	112.081256131646	0.011010993062
0	11791	112.092267124708	0.010513447121
0	11796	112.102780571829	0.080894097678
0	11801	112.183674669507	0.028974913334
0	11806	112.212649582841	0.045825600836
0	11811	112.258475183677	0.070061174589
0	11816	112.328536358266	0.075748349423
0	11821	112.404284707689	0.098141349208
0	11828	112.502426056897	0.009213866543
0	11833	112.51163992344	0.027594932193
0	11838	112.539234855633	0.172118688713
0	11843	112.711353544346	0.009596801357
0	11848	112.720950345703	0.023971601591
0	11853	112.744921947294	0.039377056562
0	11858	112.784299003856	0.007254828737
0	11860	112.791553832593	0.022616891803
0	11868	112.814170724396	0.132694693329
0	11874	112.946865417725	0.065032343197
0	11879	113.011897760922	0.01066213193
0	11884	113.022559892852	0.037955076352
0	11889	113.060514969204	0.027523280481
0	11894	113.088038249685	0.171102470273
0	11901	113.259140719958	0.203424919637
0	11910	113.462565639595	0.007125713451
0	11912	113.469691353046	0.015353189105
0	11920	113.485044542151	0.021049683897
0	11925	113.506094226048	0.059441682908
0	11931	113.565535908956	0.06932468108
0	11936	113.634860590036	0.043242202745
0	11941	113.678102792781	0.014159111573
0	11946	113.692261904354	0.036572524411
0	11951	113.728834428765	0.004109462279
0	11953	113.732943891044	0.063496464541
0	11961	113.796440355585	0.023341550239
0	11966	113.819781905824	0.076073967355
0	11972	113.895855873179	0.067825577726
0	11977	113.963681450905	0.025909879513
[...]
19	18290	172.735752513229	0.32119639062799
19	18320	173.056948903857	8.2589489204415
19	19278	181.315897824299	2.5032335206657
19	19534	183.819131344965	1.5905314182656
19	19692	185.409662763231	3.8797613365042
19	20122	189.289424099735	0.52020022648345
19	20173	189.809624326218	1.6629462918464
19	20359	191.472570618064	1.6894254045406
19	20511	193.161996022605	3.5710819621367
19	20879	196.733077984742	0.73144328171019
19	20954	197.464521266452	0.005179730527805
19	20955	197.46970099698	1.9391443071483
19	21181	199.408845304128	0.85506182951035
19	21278	200.263907133638	0.51400484520691
19	21333	200.777911978845	1.6579167393157
19	21529	202.435828718161	0.78092507606321
19	21595	203.216753794224	4.3087703155873
19	22091	207.525524109811	1.2484274078944
19	22189	208.773951517705	4.5579943139647
19	22637	213.33194583167	3.061884366405
19	22967	216.393830198075	0.22253712641827
19	22997	216.616367324493	0.090106636407699
19	23009	216.706473960901	3.4091935058916
19	23380	220.115667466793	0.56032595359114
19	23460	220.675993420384	1.1710006365807
19	23565	221.846994056965	0.99311439601886
19	23667	222.840108452984	6.9239083927424
19	24367	229.764016845726	5.7785095971266
19	24902	235.542526442853	1.8105311852714
19	25128	237.353057628124	0.27805891367997
19	25162	237.631116541804	0.065225869990083
19	25169	237.696342411794	0.62532044074324
19	25260	238.321662852537	2.355506317993
19	25521	240.67716917053	1.142464186901
19	25665	241.819633357431	1.3336664369683
19	25821	243.153299794399	7.0389355980698
19	26639	250.192235392469	3.0603888913416
19	26916	253.252624283811	1.6442854354643
19	27122	254.896909719275	0.70640697369728
19	27191	255.603316692972	5.4806140051504
19	27739	261.083930698122	3.6854043805222
19	28072	264.769335078644	2.5328246624548
19	28370	267.302159741099	1.716137759975
19	28638	269.018297501074	2.800443391005
19	28950	271.818740892079	2.8771827983554
19	29257	274.695923690434	0.17903686085477
19	29270	274.874960551289	1.6165900712837
19	29452	276.491550622573	1.6925081085562
19	29631	278.184058731129	5.6825551762663
19	30261	283.866613907395	0.95409954168989
19	30302	284.820713449085	6.4983702167347
19	30933	291.31908366582	1.1518309253144
19	31035	292.470914591134	0.50373493362404
19	31056	292.974649524758	7.9432946390913
19	32056	300.917944163849	6.8043386263051
19	32814	307.722282790154	16.399466175456
19	34586	324.12174896561	1.1281123462296
19	34736	325.24986131184	2.3415750701724
19	34990	327.591436382012	3.2113307604112
19	35340	330.802767142423	1.7708350850535
19	35524	332.573602227477	1.1661703071024
19	35640	333.739772534579	2.2786361417332
19	35945	336.018408676312	2.6397286101054
19	36249	338.658137286417	2.2898571428719
19	36435	340.947994429289	0.17025575475874
19	36456	341.118250184048	1.1356389220069
19	36555	342.253889106055	5.7317633662713
19	37244	347.985652472326	3.0258703064947
19	37557	351.011522778821	2.9235515396189
19	37845	353.93507431844	6.0464141391229
19	38509	359.981488457563	1.3059563496118
19	38675	361.287444807175	1.5973981707693
19	38826	362.884842977944	3.9940603694232
19	39320	366.878903347367	0.50598313411556
19	39383	367.384886481483	2.3805707734613
19	39591	369.765457254944	3.789299262597
19	40020	373.554756517541	2.4241027411058
19	40273	375.978859258647	1.072178792533
19	40407	377.05103805118	0.84872600284164
19	40520	377.899764054022	1.0974860395601
19	40649	378.997250093582	1.8200696970535
19	40817	380.817319790636	0.59389407996275
19	40913	381.411213870599	7.6102117810072
19	41691	389.021425651606	4.9642865249969
19	42186	393.985712176603	0.84473024268415
19	42273	394.830442419287	0.71296922218873
19	42362	395.543411641476	2.1364970861346
19	42580	397.679908727611	1.4172200409615
19	42706	399.097128768572	0.03959574134115
19	42714	399.136724509913	0.71630079681974
19	42794	399.853025306733	0.34100846208079
20	1871	17.219786975303	0.033898787791105
20	1877	17.253685763094	2.9213234750614
20	2202	20.175009238155	0.80475577506736
20	2313	20.979765013222	2.1409736397767
20	2542	23.120738652999	1.2005561223624
20	2677	24.321294775361	0.43261398413857
20	2742	24.7539087595	0.053224125046752
20	2747	24.807132884547	0.39874382899637
20	2757	25.205876713543	0.47146554400802
20	2811	25.677342257551	0.072782674181775
20	2818	25.750124931733	4.9666365084353
20	3377	30.716761440168	0.22180478032763
20	3395	30.938566220496	0.48611889773575
20	3449	31.424685118232	1.7706528458246
20	3648	33.195337964057	1.6116105227142
20	3815	34.806948486771	0.079612131633114
20	3836	34.886560618404	0.57730313824089
20	3892	35.463863756645	1.3880018091557
20	4059	36.851865565801	2.4724155831853
20	4326	39.324281148986	1.1343344555813
20	4430	40.458615604567	4.7644271698838
20	4906	45.223042774451	0.34100626697186
20	4930	45.564049041423	2.1051142440813
20	5120	47.669163285504	1.2405218725368
20	5193	48.909685158041	1.5633455963187
20	5342	50.47303075436	2.6000970146845
20	5558	53.073127769044	0.44809719941494
20	5626	53.521224968459	1.1171704741402
20	5717	54.638395442599	1.0491818646918
20	5781	55.687577307291	1.812162994464
20	5980	57.499740301755	0.4228333334072
20	6022	57.922573635162	2.1275440317726
20	6223	60.050117666935	0.75164182051475
20	6316	60.80175948745	1.8843249468778
20	6553	62.686084434328	1.9164126098867
20	6720	64.602497044215	0.41376701483918
20	6759	65.016264059054	0.18157461349989
20	6781	65.197838672554	0.38145526029219
20	6802	65.579293932846	0.43630046555455
20	6840	66.015594398401	2.4022612888673
20	7056	68.417855687268	3.1435456449367
20	7460	71.561401332205	0.54234664187955
20	7519	72.103747974085	0.1103862183007
20	7525	72.214134192386	0.14593129430873
20	7544	72.360065486695	3.4504460686002
20	7884	75.810511555295	0.97684494505069
20	7979	76.787356500346	0.45218662103849
20	8058	77.239543121384	0.5069836931207
20	8113	77.746526814505	5.5414969754012
20	8670	83.288023789906	2.6366925809881
20	8919	85.924716370894	3.2436524390887
20	9327	89.168368809983	2.6943995909405
20	9629	91.862768400924	0.66073535853221
20	9692	92.523503759456	2.8844240201574
20	10109	95.407927779613	1.3216126623523
20	10243	96.729540441965	0.56883663912602
20	10305	97.298377081091	4.6938401095321
20	10796	101.992217190623	4.1498603020946
20	11186	106.142077492718	3.4581198066387
20	11555	109.600197299357	3.3284241338547
20	11873	112.928621433212	0.92326791483744
20	11971	113.851889348049	5.0169036220923
20	12541	118.868792970141	1.4651677016004
20	12741	120.333960671741	3.5019928774037
20	13034	123.835953549145	1.0724600915566
20	13191	124.908413640702	1.7500242029591
20	13414	126.658437843661	0.60473398070055
20	13523	127.263171824362	0.84268252481465
20	13594	128.105854349177	4.1833264196873
20	14103	132.289180768864	0.012712847273281
20	14104	132.301893616137	10.281505877851
20	15166	142.583399493988	2.9624737975959
20	15433	145.545873291584	3.685371014879
20	15803	149.231244306463	2.2717956317449
20	15989	151.503039938208	0.31037851380153
20	16025	151.81341845201	4.8634490627159
20	16511	156.676867514726	1.9005619928673
20	16688	158.577429507593	0.11473694408156
20	16699	158.692166451675	0.8831892089239
20	16793	159.575355660599	0.29900429390281
20	16820	159.874359954502	2.1236689450404
20	17074	161.998028899542	2.169410766799
20	17334	164.167439666341	0.0011570680083753
20	17335	164.168596734349	0.26172735823351
20	17369	164.430324092583	4.5926963472378
20	17839	169.023020439821	1.2046273632629
20	18036	170.227647803084	1.2492588111069
20	18140	171.476906614191	3.1271017925151
20	18504	174.604008406706	1.0050989640208
20	18625	175.609107370727	0.71349354102858
20	18712	176.322600911756	1.6358841857684
20	18926	177.958485097524	1.1947170127598
20	19066	179.153202110284	1.8891610546215
20	19247	181.042363164905	2.0535209914529
20	19462	183.095884156358	0.55139222106011
20	19521	183.647276377418	0.089052837111745
20	19522	183.73632921453	7.8389018813281
20	20368	191.575231095858	6.7332482639997
20	21023	198.308479359858	0.29877700227847
20	21055	198.607256362136	1.9020451570837
20	21312	200.50930151922	1.3639310330262
20	21467	201.873232552246	0.10718190305493
20	21468	201.980414455301	2.3686544392218
20	21764	204.349068894523	0.10211803508489
20	21780	204.451186929608	0.11571350748275
20	21787	204.566900437091	7.3233470644573
20	22517	211.890247501548	0.11842251708028
20	22524	212.008670018628	0.63759088134
20	22577	212.646260899968	1.5196513542361
20	22724	214.165912254204	1.5294992438764
20	22870	215.69541149808	1.7529390727192
20	23087	217.448350570799	0.74770918676165
20	23126	218.196059757561	1.706298098408
20	23352	219.902357855969	0.57914394802576
20	23437	220.481501803995	1.4826427970521
20	23592	221.964144601047	1.4269432079176
20	23712	223.391087808965	0.81134384001499
20	23796	224.20243164898	1.4930850141058
20	23969	225.695516663086	3.3882149763633
20	24299	229.083731639449	1.4077016107579
20	24417	230.491433250207	0.94691180087321
20	24498	231.43834505108	0.6673504630333
20	24575	232.105695514113	1.338366458065
20	24719	233.444061972178	0.86337229195938
20	24796	234.307434264137	5.1759379282348
20	25405	239.483372192372	7.2832906330654
20	26201	246.766662825437	0.39590934567018
20	26239	247.162572171107	1.4082796083385
20	26421	248.570851779446	1.13033963612
20	26585	249.701191415566	0.19332775889429
20	26603	249.89451917446	0.3391980044523
20	26645	250.233717178912	1.0295662999277
20	26728	251.26328347884	1.1108660619481
20	26820	252.374149540788	4.942172199657
20	27370	257.316321740445	3.0251379848723
20	27690	260.341459725317	1.9261274944888
20	27839	262.267587219806	1.2031627339288
20	27940	263.470749953735	2.7537334385066
20	28277	266.224483392242	5.2666680249869
20	28921	271.491151417229	5.0760298109381
20	29453	276.567181228167	2.2310212905163
20	29712	278.798202518683	1.5886047549706
20	29904	280.386807273654	1.7133761331512
20	30024	282.100183406805	0.41668247817334
20	30095	282.516865884978	1.1431614535505
20	30229	283.660027338528	1.3492771251069
20	30332	285.009304463635	5.4581911467504
20	30853	290.467495610385	1.7335498536201
20	31021	292.201045464005	0.8550804969729
20	31073	293.056125960978	1.0663810670224
20	31244	294.122507028	2.0569042253398
20	31433	296.17941125334	1.6823115009108
20	31697	297.861722754251	0.6458612929832
20	31808	298.507584047234	0.022803965018142
20	31814	298.530388012252	1.4186888827546
20	31952	299.949076895007	6.8016171930927
20	32695	306.7506940881	0.74073467036719
20	32782	307.491428758467	0.17383942255874
20	32807	307.665268181026	0.5681741258104
20	32884	308.233442306836	4.0261373629856
20	33295	312.259579669822	0.88812572691295
20	33412	313.147705396735	0.010144344939877
20	33414	313.157849741675	0.35856178012506
20	33462	313.5164115218	0.76693257304976
20	33531	314.28334409485	1.1038080903874
20	33719	315.387152185237	2.6117269431864
20	34030	317.998879128423	0.42321675297229
20	34054	318.422095881395	2.4367951464379
20	34242	320.858891027833	0.54214935984554
20	34321	321.401040387679	3.6458357742511
20	34719	325.04687616193	3.7807007556635
20	35118	328.827576917593	0.54818925087743
20	35179	329.37576616847	3.5021302836998
20	35547	332.87789645217	0.48383370720828
20	35608	333.361730159378	0.080020276317994
20	35619	333.441750435696	0.71961058227245
20	35684	334.161361017968	2.2993912181322
20	36009	336.4607522361	2.6919635126307
20	36282	339.152715748731	5.1618417760087
20	36784	344.31455752474	0.22868331263933
20	36820	344.543240837379	3.0448034530436
20	37167	347.588044290423	0.85679054541658
20	37290	348.44483483584	2.9311524853639
20	37565	351.375987321204	1.8587551846208
20	37746	353.234742505825	1.3466185509199
20	37905	354.581361056745	2.4407181231163
20	38184	357.022079179861	1.3062941242117
20	38325	358.328373304073	1.6908914011367
20	38513	360.01926470521	1.942520735439
20	38750	361.961785440649	1.8743933147234
20	38911	363.836178755372	0.16350914758548
20	38923	363.999687902957	2.465063812693
20	39269	366.46475171565	2.9007139022285
20	39557	369.365465617878	0.59038749569928
20	39620	369.955853113577	0.32696809805599
20	39662	370.282821211633	8.1517121731537
20	40595	378.434533384787	0.109103881783
20	40612	378.54363726657	1.825712633814
20	40761	380.369349900384	4.9692477594032
20	41333	385.338597659787	5.1532917644386
20	41829	390.491889424226	1.0492632315327
20	41922	391.541152655759	0.19171214022723
20	41953	391.732864795986	1.7909768509556
20	42147	393.523841646942	0.80793500334445
20	42209	394.331776650286	0.74471374422963
20	42310	395.076490394516	1.8774054859748
20	42495	396.953895880491	7.328637686535
21	1930	17.585734691709	0.26349620411171
21	1941	17.849230895821	3.7494159316815
21	2369	21.598646827502	4.2983266306647
21	2847	25.896973458167	1.0780665387173
21	2913	26.975039996884	0.93131270834806
21	3007	27.906352705232	2.6819238563353
21	3360	30.588276561567	4.8885770168646
21	3893	35.476853578432	1.2816601144322
21	4052	36.758513692864	0.96905198392434
21	4165	37.727565676788	1.285289111307
21	4300	39.012854788095	0.89656663857913
21	4361	39.909421426674	0.15710497324858
21	4382	40.066526399923	2.6818855793788
21	4659	42.748411979302	0.31899254595896
21	4701	43.067404525261	1.4978886587804
21	4863	44.565293184041	2.2494067467495
21	5035	46.814699930791	1.1139319831139
21	5136	47.928631913905	0.094568246326313
21	5139	48.023200160231	4.2627087086084
21	5508	52.285908868839	11.521011531237
21	6635	63.806920400076	7.3416150139828
21	7418	71.148535414059	0.25028472759106
21	7446	71.39882014165	1.9862721184867
21	7657	73.385092260137	3.6946737031291
21	8038	77.079765963266	0.0015418403596216
21	8039	77.081307803626	0.062709914274845
21	8041	77.144017717901	2.2593436215203
21	8295	79.403361339421	2.25733373118
21	8488	81.660695070601	0.92153693547944
21	8579	82.58223200608	0.21167476090824
21	8596	82.793906766988	2.3017390254965
21	8828	85.095645792485	7.5445745604162
21	9708	92.640220352901	0.28253897008429
21	9746	92.922759322985	0.070435000122363
21	9764	92.993194323107	5.153614672561
21	10390	98.146808995668	2.0536864267494
21	10542	100.200495422417	0.126285041164
21	10553	100.326780463581	2.2790854099922
21	10884	102.605865873573	5.2771456126112
21	11368	107.883011486184	6.5516628846138
21	12019	114.434674370798	2.5935650458616
21	12358	117.02823941666	9.1600300706215
21	13341	126.188269487281	0.40916112703524
21	13406	126.597430614316	11.489161550195
21	14752	138.086592164511	0.45654553574838
21	14787	138.543137700259	1.09480986814
21	14873	139.637947568399	0.76426394468338
21	14958	140.402211513082	5.7886275399357
21	15521	146.190839053018	3.2989105366555
21	15813	149.489749589673	3.3518934322301
21	16154	152.841643021903	2.4202253699992
21	16348	155.261868391902	0.99004051352425
21	16445	156.251908905426	0.48995738628552
21	16520	156.741866291712	0.72672165978912
21	16584	157.468587951501	0.17354619525739
21	16595	157.642134146758	3.1217566944287
21	16914	160.763890841187	0.70608743485685
21	17013	161.469978276044	1.5648567798257
21	17188	163.03483505587	3.2273609720751
21	17558	166.262196027945	1.0440306430311
21	17664	167.306226670976	0.81891944407472
21	17736	168.125146115051	0.30277846904488
21	17755	168.427924584096	4.1579496540604
21	18277	172.585874238156	0.052884018657691
21	18279	172.638758256814	8.0892084355967
21	19222	180.727966692411	2.0034438719677
21	19428	182.731410564379	0.085976430930437
21	19429	182.817386995309	7.9436431301167
21	20281	190.761030125426	2.3866432655385
21	20509	193.147673390964	0.79377884579384
21	20587	193.941452236758	0.51879516517158
21	20657	194.46024740193	0.34072190615077
21	20688	194.800969308081	1.1825838260365
21	20816	195.983553134118	0.15010408914359
21	20825	196.133657223262	2.2759392798059
21	21035	198.409596503068	0.47688029872363
21	21086	198.886476801792	0.57485730639587
21	21187	199.461334108188	1.0086275039247
21	21300	200.469961612113	3.6496830405997
21	21727	204.119644652713	0.10368481721437
21	21748	204.223329469927	0.41555940001196
21	21788	204.638888869939	5.3986073734403
21	22337	210.037496243379	0.19421972014954
21	22363	210.231715963529	2.5252116845242
21	22583	212.756927648053	0.030797937502834
21	22591	212.787725585556	1.3017384939057
21	22717	214.089464079462	0.63519405865261
21	22785	214.724658138115	1.2413793133516
21	22914	215.966037451467	2.5714122683139
21	23163	218.537449719781	0.38572578493893
21	23223	218.92317550472	1.3188792310478
21	23402	220.242054735768	1.2444513019978
21	23533	221.486506037766	0.10193579244085
21	23554	221.588441830207	3.8132866917274
21	23937	225.401728521934	1.7113774947383
21	24132	227.113106016672	1.9326305705763
21	24297	229.045736587248	0.18775858021746
21	24311	229.233495167465	0.93820500195094
21	24379	230.171700169416	1.1606647883705
21	24491	231.332364957787	0.029205393445367
21	24492	231.361570351232	3.4332636822598
21	24844	234.794834033492	3.6378999143985
21	25265	238.432733947891	0.62098101404686
21	25376	239.053714961938	0.45179432808235
21	25406	239.50550929002	2.6654012169577
21	25713	242.170910506978	6.2437766028899
21	26389	248.414687109868	4.6658973227462
21	26898	253.080584432614	0.8079077703306
21	27008	253.888492202945	0.5895407481819
21	27074	254.478032951127	0.63150589502131
21	27148	255.109538846148	1.9207332089712
21	27320	257.030272055119	6.2288929002801
21	27927	263.259164955399	1.298441188714
21	28051	264.557606144113	0.059199603980496
21	28054	264.616805748093	2.0384573003624
21	28321	266.655263048455	0.55070699493077
21	28363	267.205970043386	1.9134044139112
21	28654	269.119374457297	0.37832974320538
21	28723	269.497704200502	0.3822892506483
21	28733	269.87999345115	0.12310436858583
21	28741	270.003097819736	3.6343106146432
21	29145	273.637408434379	5.3709708931226
21	29734	279.008379327502	1.4665000711586
21	29905	280.474879398661	0.011580694149405
21	29906	280.48646009281	1.2611878740899
21	30008	281.7476479669	2.9025311508798
21	30292	284.65017911778	0.13256375671452
21	30298	284.782742874495	2.3387760598128
21	30517	287.121518934308	0.89524930725139
21	30581	288.016768241559	1.2221251380066
21	30746	289.238893379566	4.5589702560869
21	31168	293.797863635653	0.011348261630612
21	31169	293.809211897284	1.761755058911
21	31378	295.570966956195	1.1758249412135
21	31503	296.746791897408	3.9401531227466
21	32034	300.686945020155	0.28869273997777
21	32057	300.975637760133	7.0407870749276
21	32848	308.016424835061	1.8995803765491
21	33086	309.91600521161	2.939040265073
21	33371	312.855045476683	1.883350136038
21	33611	314.738395612721	3.7503231401709
21	34056	318.488718752892	1.8889261963196
21	34219	320.377644949212	5.8491064330137
21	34814	326.226751382226	0.10452803409709
21	34836	326.331279416323	0.79797907506455
21	34921	327.129258491388	0.6043355202908
21	34997	327.733594011679	1.845219844888
21	35205	329.578813856567	0.84151057039802
21	35297	330.420324426965	0.59351184394472
21	35358	331.01383627091	0.64193314598308
21	35433	331.655769416893	1.0273359344723
21	35536	332.683105351365	2.0804515442586
21	35797	334.763556895624	1.3559892098875
21	35959	336.119546105511	0.71364421957496
21	36054	336.833190325086	3.4431722027201
21	36381	340.276362527806	2.5250501572643
21	36615	342.80141268507	0.56897817462383
21	36672	343.370390859694	0.15019998393032
21	36708	343.520590843624	3.1740484089097
21	37022	346.694639252534	0.27501540371908
21	37069	346.969654656253	2.6242761820241
21	37385	349.593930838277	0.28765769963525
21	37410	349.881588537912	3.7179948409682
21	37791	353.59958337888	1.0835238054281
21	37918	354.683107184308	3.8462693490746
21	38341	358.529376533383	1.8474903774538
21	38567	360.376866910837	6.7888786953719
21	39343	367.165745606209	4.3104393937578
21	39796	371.476184999967	0.87038900526332
21	39932	372.34657400523	2.854122187765
21	40212	375.200696192995	6.248396108799
21	40917	381.449092301794	0.20381841801024
21	40936	381.652910719804	4.1991701199833
21	41392	385.852080839787	5.3052472235841
21	41868	391.157328063371	0.043455588014028
21	41869	391.200783651385	4.3035376294805
21	42361	395.504321280866	0.82537924215989
21	42441	396.329700523026	0.31137793545168
21	42464	396.641078458478	3.3043762092487
21	42803	399.945454667727	1.6383588039272

