version 2
run Nonmonitoring-exponential-592-20210224-17:49:33-27108
attr configname Nonmonitoring-exponential
attr datetime 20210224-17:49:33
attr experiment Nonmonitoring-exponential
attr inifile aerocom.ini
attr iterationvars $0=50
attr iterationvarsf 50-
attr measurement $0=50
attr network Aerocom
attr processid 27108
attr repetition 92
attr replication #92
attr resultdir results
attr runnumber 592
attr seedset 92
param **.t 2s
param **.k 50ms
param **.X 0.05s
param **.m 1s
param **.tDistribution "\"exponential\""
param **.operationMode 1
param **.s "70 byte"
param **.dimPoolMax 10000
param **.dimPoolMin 8000
param **.nDL 16
param **.nA 1
param **.DLMaxCapacity 0
param **.trasmitting false

vector 0 Aerocom.aircraft[0].dataLink[2] tDistribution:vector ETV
attr "" ""
attr source computeTDistribution
vector 1 Aerocom.aircraft[0].dataLink[1] tDistribution:vector ETV
attr "" ""
attr source computeTDistribution
vector 2 Aerocom.aircraft[0].packetGenerator arrivalTime:vector ETV
attr "" ""
attr source computeArrivalTime
vector 3 Aerocom.aircraft[0].linkSelector waitingTime:vector ETV
attr "" ""
attr source computeWaitingTime
vector 4 Aerocom.aircraft[0].linkSelector queueLength:vector ETV
attr "" ""
attr source computeQueueLength
vector 5 Aerocom.aircraft[0].dataLink[15] actualCapacity:vector ETV
attr "" ""
attr source computeActualCapacity
vector 6 Aerocom.aircraft[0].linkSelector serviceTime:vector ETV
attr "" ""
attr source computeServiceTime
vector 7 Aerocom.aircraft[0].linkSelector responseTime:vector ETV
attr "" ""
attr source computeResponseTime
vector 8 Aerocom.aircraft[0].dataLink[5] tDistribution:vector ETV
attr "" ""
attr source computeTDistribution
vector 9 Aerocom.aircraft[0].dataLink[0] tDistribution:vector ETV
attr "" ""
attr source computeTDistribution
vector 10 Aerocom.aircraft[0].dataLink[7] tDistribution:vector ETV
attr "" ""
attr source computeTDistribution
vector 11 Aerocom.aircraft[0].dataLink[12] tDistribution:vector ETV
attr "" ""
attr source computeTDistribution
vector 12 Aerocom.aircraft[0].dataLink[11] tDistribution:vector ETV
attr "" ""
attr source computeTDistribution
vector 13 Aerocom.aircraft[0].dataLink[10] tDistribution:vector ETV
attr "" ""
attr source computeTDistribution
vector 14 Aerocom.aircraft[0].dataLink[14] tDistribution:vector ETV
attr "" ""
attr source computeTDistribution
vector 15 Aerocom.aircraft[0].dataLink[13] tDistribution:vector ETV
attr "" ""
attr source computeTDistribution
vector 16 Aerocom.aircraft[0].dataLink[8] tDistribution:vector ETV
attr "" ""
attr source computeTDistribution
vector 17 Aerocom.aircraft[0].dataLink[4] tDistribution:vector ETV
attr "" ""
attr source computeTDistribution
vector 18 Aerocom.aircraft[0].dataLink[9] tDistribution:vector ETV
attr "" ""
attr source computeTDistribution
vector 19 Aerocom.aircraft[0].dataLink[15] tDistribution:vector ETV
attr "" ""
attr source computeTDistribution
vector 20 Aerocom.aircraft[0].dataLink[6] tDistribution:vector ETV
attr "" ""
attr source computeTDistribution
vector 21 Aerocom.aircraft[0].dataLink[3] tDistribution:vector ETV
attr "" ""
attr source computeTDistribution
0	1061	10.028107938233	3.1100182387509
0	1405	13.138126176984	5.5075219790148
0	1980	18.645648155999	5.0571449790621
0	2503	23.702793135061	0.3332328532058
0	2517	24.036025988267	3.9054010572247
0	2926	27.941427045492	2.7124721245767
0	3207	30.653899170069	2.3223555480164
0	3462	32.976254718085	1.1794032648176
0	3658	34.155657982903	0.87660457439532
0	3765	35.032262557298	1.4011022042015
0	3932	36.433364761499	1.0840685174159
0	4025	37.517433278915	5.4264989738304
0	4598	42.943932252745	1.3090010279401
0	4714	44.252933280685	0.52724396358544
0	4774	44.78017724427	1.5916086953341
0	4896	46.371785939604	1.5814970128912
0	5065	47.953282952495	1.53509686374
0	5273	49.488379816235	0.25515690015889
0	5286	49.743536716394	1.3897701362186
0	5428	51.133306852613	0.069194420684127
0	5436	51.202501273297	4.126044379676
0	5865	55.328545652973	0.67668360148546
0	5953	56.005229254458	1.5919131674165
0	6098	57.597142421874	2.5159017245291
0	6393	60.113044146403	2.6655061472801
0	6677	62.778550293683	5.1187634198506
0	7238	67.897313713534	1.661959905026
0	7425	69.55927361856	4.0212239428872
0	7860	73.580497561447	4.3523271874703
0	8302	77.932824748917	7.7594599677892
0	9156	85.692284716706	7.5769367510748
0	9877	93.269221467781	11.233901669722
0	11126	104.503123137503	4.3286821081554
0	11618	108.831805245658	2.598127490057
0	11936	111.429932735715	5.9421150388758
0	12584	117.372047774591	0.43835251642667
0	12639	117.810400291018	2.5985999601159
0	12930	120.409000251134	2.5641229850646
0	13235	122.973123236199	0.30698249747578
0	13257	123.280105733675	1.5824490463307
0	13465	124.862554780006	5.4457233911499
0	14052	130.308278171156	3.0666080112102
0	14366	133.374886182366	1.3710419070675
0	14545	134.745928089434	2.6599834616294
0	14791	137.405911551063	1.4132814839064
0	14941	138.819193034969	4.774475019416
0	15397	143.593668054385	0.74968464895545
0	15496	144.34335270334	1.5833986296851
0	15647	145.926751333025	1.3353477769482
0	15794	147.262099109973	0.26876690642532
0	15835	147.530866016398	0.48909416585615
0	15921	148.019960182254	2.6032642762901
0	16191	150.623224458544	0.076946325144052
0	16200	150.700170783688	2.1851354688266
0	16415	152.885306252515	1.7985595276561
0	16573	154.683865780171	3.323068668995
0	16912	158.006934449166	2.2379140731717
0	17129	160.244848522338	4.313776417267
0	17623	164.558624939605	3.2059162495225
0	17974	167.764541189127	4.1160342032023
0	18400	171.880575392329	1.161424208328
0	18477	173.041999600657	4.7741685826226
0	18916	177.81616818328	2.049175643901
0	19151	179.865343827181	3.0620670215001
0	19531	182.927410848681	2.1685266653455
0	19803	185.095937514026	1.1243390358228
0	19930	186.220276549849	2.0875203838791
0	20154	188.307796933728	0.30107336363043
0	20180	188.608870297358	0.22853241474749
0	20206	188.837402712105	0.016975048381299
0	20207	188.854377760486	1.4793934203081
0	20387	190.333771180794	0.86855406446965
0	20468	191.202325245264	1.2499561507824
0	20593	192.452281396046	1.8132105879493
0	20800	194.265491983995	0.20164828174156
0	20826	194.467140265737	0.12536821904419
0	20843	194.592508484781	3.4497029505453
0	21188	198.042211435326	4.9758321680408
0	21738	203.018043603367	0.96432308596184
0	21867	203.982366689329	1.9421711684669
0	22051	205.924537857796	0.60213246257095
0	22116	206.526670320367	5.211330585231
0	22727	211.738000905598	3.2104774354922
0	23125	214.94847834109	0.62832101200433
0	23201	215.576799353094	8.2606319182779
0	24044	223.837431271372	1.1703360638812
0	24184	225.007767335253	1.4630289155569
0	24342	226.47079625081	0.045013982666343
0	24344	226.515810233476	0.51934908347617
0	24394	227.035159316952	0.765734703884
0	24503	227.800894020836	0.16375287535332
0	24519	227.964646896189	1.3140526320593
0	24607	229.278699528248	0.50649773489906
0	24690	229.785197263147	3.4059441154353
0	25077	233.191141378582	1.1100692302964
0	25231	234.301210608878	1.0245631374461
0	25351	235.325773746324	3.5772072146351
0	25764	238.902980960959	1.5476961799633
0	25968	240.450677140922	0.71839997426135
0	26046	241.169077115183	2.6563779050367
0	26323	243.82545502022	5.3898465913728
0	26881	249.215301611593	5.1550640919931
0	27351	254.370365703586	1.4108619099897
0	27470	255.781227613576	1.7831615247966
0	27662	257.564389138373	4.1854319101297
0	28247	261.749821048503	0.11301261263667
0	28276	261.86283366114	0.26482700229726
0	28306	262.127660663437	1.0891464244944
0	28424	263.216807087931	0.096275626965391
0	28429	263.313082714896	1.1359019973781
0	28563	264.448984712274	0.41819558456026
0	28596	264.867180296834	0.62140085164196
0	28675	265.488581148476	0.80905851971933
0	28759	266.297639668195	0.62418576128627
0	28827	266.921825429481	0.30834109950598
0	28859	267.230166528987	1.5765383722732
0	28995	268.80670490126	0.078483931799003
0	29019	268.885188833059	0.15900951770317
0	29041	269.044198350762	2.1629044137086
0	29288	271.207102764471	2.0193562100173
0	29484	273.226458974488	0.61892303397001
0	29552	273.845382008458	1.667538726403
0	29711	275.512920734861	0.94518203582703
0	29804	276.458102770688	0.77753981575717
0	29876	277.235642586445	0.40553347558659
0	29952	277.641176062032	0.95872823836905
0	30047	278.599904300401	1.5716463665006
0	30216	280.171550666902	0.951670598275
0	30348	281.123221265177	0.93342619901541
0	30469	282.056647464192	4.0015767078097
0	30902	286.058224172002	0.23400836156292
0	30925	286.292232533565	0.16522598432648
0	30937	286.457458517891	0.96881404473442
0	31046	287.426272562625	0.16823171222455
0	31076	287.59450427485	1.0041670000745
0	31185	288.598671274925	0.49112300170531
0	31231	289.08979427663	1.1401729294766
0	31374	290.229967206107	0.52335826433241
0	31425	290.753325470439	0.78105523821083
0	31487	291.53438070865	3.1810706117027
0	31847	294.715451320353	1.4066043830098
0	32010	296.122055703363	0.0011217120965602
0	32011	296.12317741546	1.136624781099
0	32132	297.259802196559	0.83358693333164
0	32194	298.093389129891	0.56609287040502
0	32269	298.659482000296	2.2482946597752
0	32531	300.907776660071	0.40806091450049
0	32573	301.315837574571	8.5244108078712
0	33541	309.840248382442	2.8239516708008
0	33841	312.664200053243	1.0791221472366
0	33950	313.74332220048	0.90924082301782
0	34052	314.652563023498	1.0856112808212
0	34192	315.738174304319	2.1950713186158
0	34445	317.933245622935	5.3436079862372
0	34987	323.276853609172	0.22224168987775
0	34999	323.49909529905	0.65947383778103
0	35036	324.158569136831	0.42768040029145
0	35082	324.586249537122	4.3304023570914
0	35516	328.916651894213	3.5426283194011
0	35893	332.459280213614	0.10574739811591
0	35905	332.56502761173	2.7399937894663
0	36214	335.305021401196	1.6819843836908
0	36400	336.987005784887	0.21821356154622
0	36432	337.205219346433	0.027693673328184
0	36433	337.232913019761	4.7613715618354
0	36979	341.994284581596	0.14787624695661
0	36995	342.142160828553	1.2525195393868
0	37138	343.39468036794	1.5781306046946
0	37294	344.972810972635	1.2728758033336
0	37391	346.245686775969	1.0555564012762
0	37469	347.301243177245	1.5770960214089
0	37658	348.878339198654	0.03215374923712
0	37672	348.910492947891	4.4467326942199
0	38076	353.357225642111	0.14960083260529
0	38085	353.506826474716	2.5134908917922
0	38356	356.020317366508	0.24923295803654
0	38378	356.269550324545	1.0378871353048
0	38528	357.30743745985	1.6877571303017
0	38715	358.995194590152	0.84624880338019
0	38829	359.841443393532	0.34164748533741
0	38857	360.183090878869	1.9719092293415
0	39055	362.15500010821	0.37967862955932
0	39088	362.534678737769	1.8650221818
0	39237	364.399700919569	1.0352172492106
0	39368	365.43491816878	1.9606621695427
0	39578	367.395580338323	1.4386577465473
0	39761	368.83423808487	0.35356560260346
0	39808	369.187803687473	1.468762206808
0	39977	370.656565894281	2.6522841407711
0	40284	373.308850035052	7.4047563505714
0	41072	380.713606385623	2.0675291117414
0	41250	382.781135497364	7.2447682793041
0	42094	390.025903776668	1.3336743853046
0	42286	391.359578161973	1.6878265216826
0	42527	393.047404683656	1.0182338010938
0	42644	394.06563848475	3.5728064008343
0	42981	397.638444885584	0.19709893130318
0	43015	397.835543816887	4.0739631620509
1	1062	10.030561508012	0.25997610687508
1	1083	10.290537614887	5.7942487570099
1	1667	16.084786371897	0.27579627357446
1	1687	16.360582645471	1.4907672876183
1	1855	17.851349933089	1.6646443725506
1	2090	19.51599430564	0.12848689435746
1	2099	19.644481199997	0.21670676056366
1	2138	19.861187960561	1.0494217625785
1	2239	20.91060972314	0.45504142286719
1	2280	21.365651146007	2.0765594893013
1	2481	23.442210635308	3.2028760976777
1	2821	26.645086732986	4.5594038581406
1	3249	31.204490591127	0.51722548796794
1	3290	31.721716079095	0.53919660422966
1	3382	32.260912683325	1.2691490720566
1	3528	33.530061755382	2.0100473972678
1	3832	35.54010915265	4.9983351170213
1	4346	40.538444269671	3.3733361708584
1	4700	43.911780440529	0.20186655068017
1	4702	44.113646991209	0.061759495010345
1	4708	44.175406486219	1.6939305418973
1	4842	45.869337028116	2.3553169113186
1	5088	48.224653939435	0.041169842059659
1	5093	48.265823781495	0.3215282431827
1	5156	48.587352024678	6.2063732672537
1	5783	54.793725291932	0.16486112609078
1	5801	54.958586418023	4.6319423791949
1	6312	59.590528797218	1.9657258927312
1	6547	61.556254689949	3.7047009243259
1	6936	65.260955614275	1.4828086347977
1	7099	66.743764249073	1.5892752838154
1	7290	68.333039532888	0.18297307552462
1	7312	68.516012608413	0.700469332363
1	7381	69.216481940776	2.6175877573961
1	7682	71.834069698172	0.64817584050081
1	7760	72.482245538673	2.7010502763486
1	8032	75.183295815022	0.53548359231287
1	8063	75.718779407335	3.9938756267466
1	8518	79.712655034082	1.1323963510748
1	8633	80.845051385157	1.5144159963228
1	8799	82.35946738148	4.731724344911
1	9273	87.091191726391	0.055908579972714
1	9279	87.147100306364	4.3340225589455
1	9694	91.48112286531	1.8581081546967
1	9887	93.339231020007	0.2861623275767
1	9920	93.625393347584	1.5514424202592
1	10161	95.176835767843	0.015718659492431
1	10162	95.192554427335	2.0199899429844
1	10354	97.212544370319	1.579434795571
1	10523	98.79197916589	0.58154220596589
1	10602	99.373521371856	5.9155066582347
1	11205	105.289028030091	2.4012057719967
1	11489	107.690233802088	1.0037450131799
1	11604	108.693978815268	0.48940982343609
1	11646	109.183388638704	1.4048022782564
1	11804	110.58819091696	3.4479895160673
1	12176	114.036180433027	0.58353804943452
1	12232	114.619718482462	0.077595416637702
1	12243	114.6973138991	0.39195599153327
1	12288	115.089269890633	1.8255747834883
1	12512	116.914844674121	1.9107968293985
1	12760	118.825641503519	1.4631199547652
1	12907	120.288761458284	0.058146936291005
1	12921	120.346908394575	1.5619567125351
1	13096	121.90886510711	2.2346106930383
1	13371	124.143475800148	1.5230996723304
1	13557	125.666575472478	4.324186795619
1	14012	129.990762268097	0.36452461226146
1	14061	130.355286880358	0.70920620181744
1	14130	131.064493082175	4.3884009609575
1	14595	135.452894043133	3.1492828109669
1	14901	138.6021768541	1.5798090854847
1	15063	140.181985939585	1.4043121692431
1	15188	141.586298108828	2.0713860693109
1	15412	143.657684178139	2.0660061155462
1	15621	145.723690293685	0.071362970541173
1	15632	145.795053264226	2.3344256925787
1	15930	148.129478956805	0.004294342620949
1	15931	148.133773299426	0.28903872783633
1	15954	148.422812027262	2.189820519401
1	16183	150.612632546663	3.0550489811038
1	16512	153.667681527767	3.0416276259585
1	16801	156.709309153725	0.72936646356617
1	16847	157.438675617291	0.90584509427635
1	16944	158.344520711567	1.30207372637
1	17085	159.646594437937	2.4862747396075
1	17359	162.132869177545	8.0344013330241
1	18241	170.167270510569	9.3872722140174
1	19123	179.554542724586	1.1089656637992
1	19282	180.663508388385	0.061444633975967
1	19293	180.724953022361	0.19449983401853
1	19307	180.91945285638	2.5006252024329
1	19564	183.420078058813	2.824902481816
1	19933	186.244980540629	1.1484309946587
1	20050	187.393411535288	3.4094414043676
1	20436	190.802852939656	10.685781388677
1	21586	201.488634328333	0.15390635689653
1	21603	201.64254068523	4.0505719679072
1	22030	205.693112653137	3.9595973302841
1	22501	209.652709983421	9.3363823847791
1	23540	218.9890923682	0.50200843937845
1	23599	219.491100807578	0.558693268528
1	23658	220.049794076106	0.25685335305709
1	23665	220.306647429163	2.1788305740417
1	23927	222.485478003205	3.4804313060008
1	24296	225.965909309206	0.49267036507455
1	24341	226.458579674281	3.9241259146056
1	24768	230.382705588887	1.6262632584111
1	24925	232.008968847298	1.5485956000115
1	25143	233.557564447309	1.1609693067469
1	25299	234.718533754056	0.49891474118573
1	25345	235.217448495242	2.8150277563247
1	25665	238.032476251567	1.3961234205751
1	25798	239.428599672142	4.4519794289721
1	26328	243.880579101114	1.8862998233687
1	26508	245.766878924483	3.4933951273241
1	26882	249.260274051807	0.60230324702
1	26922	249.862577298827	2.7025431289245
1	27211	252.565120427751	1.9516570294382
1	27362	254.516777457189	0.47520171179966
1	27423	254.991979168989	4.8715143290173
1	27931	259.863493498006	2.0516770830232
1	28288	261.915170581029	0.66655259762122
1	28359	262.58172317865	1.2327737880259
1	28476	263.814496966676	1.6030268302249
1	28671	265.417523796901	1.4751076058465
1	28826	266.892631402748	3.371525117245
1	29198	270.264156519993	1.5170342206273
1	29340	271.78119074062	0.48031385382684
1	29384	272.261504594447	4.2362906860931
1	29814	276.49779528054	1.2655181187407
1	29973	277.763313399281	1.5446345206045
1	30114	279.307947919886	1.3088456897683
1	30248	280.616793609654	3.7891692467171
1	30742	284.405962856371	1.0841774627244
1	30846	285.490140319095	0.29804797834366
1	30869	285.788188297439	0.0074160589498603
1	30870	285.795604356389	1.2096896320167
1	30965	287.005293988406	2.6101584408989
1	31309	289.615452429305	2.0097736836758
1	31493	291.625226112981	1.6490385469198
1	31695	293.274264659901	1.4767395497029
1	31854	294.751004209604	1.2372802993894
1	32003	295.988284508993	1.2864649851145
1	32133	297.274749494108	8.4131421506768
1	33072	305.687891644785	0.41412655181845
1	33122	306.102018196603	4.2138254939837
1	33577	310.315843690587	1.1850893736628
1	33698	311.50093306425	1.4320375004561
1	33863	312.932970564706	1.3300668755298
1	34014	314.263037440236	1.066459243583
1	34124	315.329496683819	0.70487826943642
1	34231	316.034374953255	0.48001040179728
1	34300	316.514385355052	2.0659160836816
1	34513	318.580301438734	1.3110361884847
1	34654	319.891337627219	1.4158672067986
1	34779	321.307204834018	1.9945144607581
1	34988	323.301719294776	0.2386379290397
1	35001	323.540357223816	3.9764959651685
1	35337	327.516853188985	0.37049340081941
1	35398	327.887346589804	1.2743807896536
1	35539	329.161727379458	1.5232075006417
1	35730	330.6849348801	3.7295389732424
1	36116	334.414473853342	3.2573213384903
1	36514	337.671795191832	0.30006429661961
1	36547	337.971859488452	2.9711311468736
1	36863	340.942990635326	2.6746401104881
1	37161	343.617630745814	6.7507716905113
1	37805	350.368402436325	2.3934969871798
1	38037	352.761899423505	1.339665395109
1	38151	354.101564818614	1.4793487844796
1	38311	355.580913603094	1.0254631004921
1	38410	356.606376703586	1.3478729541317
1	38607	357.954249657718	1.1636847990403
1	38727	359.117934456758	0.0071258184042392
1	38728	359.125060275162	0.65000568850316
1	38818	359.775065963665	5.9642249297572
1	39417	365.739290893422	0.62616518856059
1	39482	366.365456081983	3.7430466210431
1	39918	370.108502703026	0.5979224464226
1	39983	370.706425149449	6.6459036829155
1	40682	377.352328832364	0.22565479607382
1	40711	377.577983628438	14.89631354138
1	42457	392.474297169818	1.1724845676721
1	42608	393.64678173749	6.7689648408949
2	1063	10.063642895577	0.069028167376
2	1068	10.132671062953	0.06088013575
2	1073	10.193551198703	0.017058078835
2	1078	10.210609277538	0.151048568959
2	1084	10.361657846497	0.058612205399
2	1089	10.420270051896	0.061160586476
2	1094	10.481430638372	0.213413907323
2	1101	10.694844545695	0.042535010575
2	1106	10.73737955627	0.016131213702
2	1111	10.753510769972	0.032093513072
2	1117	10.785604283044	0.136119372777
2	1122	10.921723655821	0.026375772042
2	1127	10.948099427863	0.00478882912
2	1129	10.952888256983	0.081322688957
2	1137	11.03421094594	0.007120865142
2	1139	11.041331811082	0.001020959409
2	1144	11.042352770491	0.005516309212
2	1146	11.047869079703	0.006346752263
2	1151	11.054215831966	0.025628212394
2	1162	11.07984404436	0.034459167319
2	1167	11.114303211679	0.038603674396
2	1172	11.152906886075	0.125908606189
2	1177	11.278815492264	0.003481857732
2	1179	11.282297349996	0.051611338904
2	1187	11.3339086889	0.062528709873
2	1194	11.396437398773	0.025862779866
2	1199	11.422300178639	0.051703604165
2	1204	11.474003782804	0.067580740267
2	1209	11.541584523071	0.053003940766
2	1215	11.594588463837	0.035905953766
2	1220	11.630494417603	0.007374628783
2	1222	11.637869046386	0.031166580848
2	1231	11.669035627234	0.010528225185
2	1237	11.679563852419	0.00118938923
2	1239	11.680753241649	0.067822864416
2	1247	11.748576106065	0.017145928353
2	1252	11.765722034418	0.002404540416
2	1254	11.768126574834	0.01692820832
2	1262	11.785054783154	0.004635783537
2	1264	11.789690566691	0.262475930613
2	1273	12.052166497304	0.007292570094
2	1275	12.059459067398	0.026465264841
2	1283	12.085924332239	0.005023349665
2	1285	12.090947681904	0.079770855413
2	1293	12.170718537317	0.017388261368
2	1299	12.188106798685	0.020440134326
2	1304	12.208546933011	0.043518224388
2	1309	12.252065157399	0.000472505747
2	1311	12.252537663146	0.010641601355
2	1316	12.263179264501	0.011291425674
2	1321	12.274470690175	0.003163687712
2	1326	12.277634377887	0.010031377877
2	1331	12.287665755764	0.077461724876
2	1339	12.36512748064	0.342919876871
2	1345	12.708047357511	0.000432574645
2	1347	12.708479932156	0.038545462491
2	1355	12.747025394647	0.046213809535
2	1360	12.793239204182	0.062947380409
2	1365	12.856186584591	0.039287223371
2	1370	12.895473807962	0.053142735301
2	1375	12.948616543263	0.056845044682
2	1380	13.005461587945	0.04116317248
2	1385	13.046624760425	0.01894413274
2	1390	13.065568893165	0.001318011043
2	1392	13.066886904208	0.020896556952
2	1400	13.08778346116	0.059994118048
2	1406	13.147777579208	0.00515912576
2	1408	13.152936704968	0.037454598861
2	1417	13.190391303829	0.001271943092
2	1419	13.191663246921	0.137099350633
2	1428	13.328762597554	0.108608911682
2	1434	13.437371509236	0.079957645955
2	1439	13.517329155191	0.002591330585
2	1441	13.519920485776	0.057094695512
2	1449	13.577015181288	0.085896225715
2	1454	13.662911407003	0.159134916014
2	1460	13.822046323017	0.047441007964
2	1466	13.869487330981	0.011242794213
2	1471	13.880730125194	0.003142912035
2	1473	13.883873037229	0.040927980927
2	1481	13.924801018156	0.010933535825
2	1486	13.935734553981	0.005707595278
2	1488	13.941442149259	8.8735317e-05
2	1490	13.941530884576	0.007544738987
2	1495	13.949075623563	0.125782041664
2	1509	14.074857665227	0.00139638516
2	1511	14.076254050387	0.102787623917
2	1519	14.179041674304	0.132550559567
2	1526	14.311592233871	0.079814279547
2	1531	14.391406513418	0.102403498172
2	1539	14.49381001159	0.049583509126
2	1545	14.543393520716	0.069403584106
2	1550	14.612797104822	9.8547371e-05
2	1552	14.612895652193	0.253420285029
2	1562	14.866315937222	0.042170218486
2	1567	14.908486155708	0.022771868516
2	1572	14.931258024224	0.147046669842
2	1578	15.078304694066	0.082199974223
2	1583	15.160504668289	0.101023182271
2	1588	15.26152785056	0.009214443091
2	1593	15.270742293651	0.10529783799
2	1598	15.376040131641	0.080661927357
2	1603	15.456702058998	0.06688395126
2	1610	15.523586010258	0.054881460207
2	1616	15.578467470465	0.023651607583
2	1621	15.602119078048	0.010207096661
2	1626	15.612326174709	0.052291681799
2	1632	15.664617856508	0.065676087353
2	1637	15.730293943861	0.07225352943
2	1642	15.802547473291	0.146255080285
2	1648	15.948802553576	0.007365312028
2	1650	15.956167865604	0.009846780002
2	1658	15.966014645606	0.177367781189
2	1668	16.143382426795	0.077105453392
2	1674	16.220487880187	0.101111511371
2	1680	16.321599391558	0.032249302457
2	1685	16.353848694015	0.026422380705
2	1691	16.38027107472	0.150000206797
2	1698	16.530271281517	0.080569546386
2	1703	16.610840827903	0.047509693173
2	1709	16.658350521076	0.012873199278
2	1714	16.671223720354	0.03573814745
2	1719	16.706961867804	0.043300410545
2	1724	16.750262278349	0.026220699836
2	1729	16.776482978185	0.033614026006
2	1734	16.810097004191	0.008650348861
2	1739	16.818747353052	0.008402817549
2	1744	16.827150170601	0.02250127155
2	1749	16.849651442151	0.058358488346
2	1757	16.908009930497	0.000755329804
2	1759	16.908765260301	0.030263583841
2	1767	16.939028844142	0.005450571252
2	1769	16.944479415394	0.097281760193
2	1777	17.041761175587	0.02507445579
2	1783	17.066835631377	0.03706648657
2	1788	17.103902117947	0.016655988569
2	1793	17.120558106516	0.214888570073
2	1799	17.335446676589	0.069429311144
2	1804	17.404875987733	0.02446169379
2	1809	17.429337681523	0.101914758108
2	1814	17.531252439631	0.008997083401
2	1819	17.540249523032	0.034824961406
2	1824	17.575074484438	0.037825837095
2	1830	17.612900321533	0.025682107685
2	1835	17.638582429218	0.013046200018
2	1840	17.651628629236	0.134056586402
2	1845	17.785685215638	0.046928512746
2	1850	17.832613728384	0.077957829465
2	1856	17.910571557849	0.002992717726
2	1858	17.913564275575	0.014756815124
2	1866	17.928321090699	0.032682506063
2	1871	17.961003596762	0.024061848419
2	1876	17.985065445181	0.06785213391
2	1881	18.052917579091	0.011956714344
2	1886	18.064874293435	0.050641333122
2	1891	18.115515626557	0.028383481279
2	1896	18.143899107836	0.036350850114
2	1901	18.18024995795	0.054035348865
2	1906	18.234285306815	0.111624110571
2	1913	18.345909417386	0.019048290214
2	1918	18.3649577076	0.011656056518
2	1923	18.376613764118	0.011307246745
2	1928	18.387921010863	0.003605954459
2	1930	18.391526965322	0.006839106428
2	1935	18.39836607175	0.009323088254
2	1940	18.407689160004	0.036835688766
2	1948	18.44452484877	0.01291793145
2	1953	18.45744278022	0.031485506387
2	1958	18.488928286607	0.006256073186
2	1960	18.495184359793	0.012817527349
2	1968	18.508001887142	0.086873996171
2	1973	18.594875883313	0.044962390757
2	1978	18.63983827407	0.026561945727
2	1985	18.666400219797	0.054141737223
2	1990	18.72054195702	0.011469193972
2	1995	18.732011150992	0.024232828186
2	2000	18.756243979178	0.098307760162
2	2005	18.85455173934	0.006857276446
2	2007	18.861409015786	0.051481025015
2	2016	18.912890040801	0.01907014332
2	2021	18.931960184121	0.03093967466
2	2026	18.962899858781	0.029272797093
2	2031	18.992172655874	0.077890743268
2	2036	19.070063399142	0.004428389064
2	2038	19.074491788206	0.081086770142
2	2046	19.155578558348	0.018971081628
2	2051	19.174549639976	0.059459504213
2	2056	19.234009144189	0.021440983618
2	2061	19.255450127807	0.03439383395
2	2066	19.289843961757	0.075586917605
2	2072	19.365430879362	0.01198796148
2	2078	19.377418840842	0.124859975046
2	2085	19.502278815888	0.114852977611
2	2092	19.617131793499	0.025118236794
2	2097	19.642250030293	0.025725454716
2	2103	19.667975485009	0.023665389315
2	2108	19.691640874324	0.017536703586
2	2113	19.70917757791	0.009418087796
2	2118	19.718595665706	0.033880322027
2	2123	19.752475987733	0.048064789969
2	2128	19.800540777702	0.04378948424
2	2133	19.844330261942	0.032820006082
2	2139	19.877150268024	0.052107547026
2	2144	19.92925781505	0.018144557396
2	2149	19.947402372446	0.053762962758
2	2154	20.001165335204	0.09344435357
2	2160	20.094609688774	0.114425604198
2	2166	20.209035292972	0.067650416425
2	2171	20.276685709397	0.101934810054
2	2177	20.378620519451	0.003322328953
2	2179	20.381942848404	0.019940237202
2	2187	20.401883085606	0.236530804557
2	2193	20.638413890163	0.03338689598
2	2198	20.671800786143	0.001016522521
2	2200	20.672817308664	0.00105277564
2	2202	20.673870084304	0.016103750836
2	2210	20.68997383514	0.045020778304
2	2219	20.734994613444	0.035783880234
2	2224	20.770778493678	0.063300895053
2	2229	20.834079388731	0.060859028482
2	2234	20.894938417213	0.177063268619
2	2241	21.072001685832	0.073936720249
2	2246	21.145938406081	0.000565129969
2	2248	21.14650353605	0.066638274229
2	2256	21.213141810279	0.035972683547
2	2263	21.249114493826	0.04025597871
2	2270	21.289370472536	0.01673810307
2	2275	21.306108575606	0.137074776056
2	2282	21.443183351662	0.027292664098
2	2288	21.47047601576	0.091174354708
2	2293	21.561650370468	0.015953962215
2	2298	21.577604332683	0.077494045495
2	2303	21.655098378178	0.118228122579
2	2308	21.773326500757	0.018093810647
2	2313	21.791420311404	0.003949606206
2	2315	21.79536991761	0.017966015751
2	2323	21.813335933361	0.040830460856
2	2328	21.854166394217	0.037240124891
2	2333	21.891406519108	0.043590372134
2	2341	21.934996891242	0.07568244722
2	2347	22.010679338462	0.021255093287
2	2352	22.031934431749	0.018987118112
2	2357	22.050921549861	0.03663008802
2	2363	22.087551637881	0.014795476154
2	2369	22.102347114035	0.075165063745
2	2375	22.17751217778	0.062704243426
2	2380	22.240216421206	0.105041554535
2	2385	22.345257975741	0.041523722493
2	2391	22.386781698234	0.018512665558
2	2396	22.405294363792	0.02034268538
2	2401	22.425637049172	0.042512444003
2	2408	22.468149493175	0.104117368382
2	2413	22.572266861557	0.038860049652
2	2419	22.611126911209	0.036497734526
2	2424	22.647624645735	0.043714680503
2	2429	22.691339326238	0.092243952687
2	2434	22.783583278925	0.048700218481
2	2439	22.832283497406	0.13842931537
2	2446	22.970712812776	0.008935375792
2	2451	22.979648188568	0.025537256904
2	2456	23.005185445472	0.01891093071
2	2461	23.024096376182	0.101554651116
2	2466	23.125651027298	0.152412687446
2	2471	23.278063714744	0.115402644415
2	2476	23.393466359159	0.09086925086
2	2482	23.484335610019	0.003317051325
2	2484	23.487652661344	0.010848806006
2	2489	23.49850146735	0.074369018535
2	2497	23.572870485885	0.159935450382
2	2504	23.732805936267	0.214463151173
2	2512	23.94726908744	0.092846983367
2	2518	24.040116070807	0.14124731397
2	2524	24.181363384777	0.010878508175
2	2529	24.192241892952	0.021446326289
2	2534	24.213688219241	0.0324174298
2	2539	24.246105649041	0.005415181491
2	2541	24.251520830532	0.021617590737
2	2549	24.273138421269	0.048104730592
2	2555	24.321243151861	0.018568560633
2	2560	24.339811712494	0.084774160611
2	2566	24.424585873105	0.017433576612
2	2572	24.442019449717	0.004486107716
2	2574	24.446505557433	0.004223346369
2	2579	24.450728903802	0.004035041685
2	2582	24.454763945487	0.091672269874
2	2593	24.546436215361	0.045774657622
2	2598	24.592210872983	0.058407447636
2	2604	24.650618320619	0.034808296289
2	2609	24.685426616908	0.015418249569
2	2615	24.700844866477	0.021087124631
2	2620	24.721931991108	0.038803597204
2	2625	24.760735588312	0.033697211473
2	2630	24.794432799785	0.04730571911
2	2635	24.841738518895	0.003477198776
2	2637	24.845215717671	0.183725271617
2	2646	25.028940989288	0.006675903886
2	2648	25.035616893174	0.008688986858
2	2653	25.044305880032	0.062716419571
2	2661	25.107022299603	0.026155600453
2	2666	25.133177900056	0.16153003866
2	2671	25.294707938716	0.01483081709
2	2676	25.309538755806	0.076710448468
2	2681	25.386249204274	0.078416314418
2	2688	25.464665518692	0.03687650878
2	2694	25.501542027472	0.02222977824
2	2700	25.523771805712	0.017029599741
2	2705	25.540801405453	0.03666090777
2	2710	25.577462313223	0.044555157546
2	2715	25.622017470769	0.077887671838
2	2720	25.699905142607	0.028187245389
2	2725	25.728092387996	0.005127629812
2	2727	25.733220017808	0.03535642598
2	2735	25.768576443788	0.007694145207
2	2737	25.776270588995	0.178840324159
2	2746	25.955110913154	0.018097945237
2	2751	25.973208858391	0.043811480749
2	2757	26.01702033914	0.008245082321
2	2762	26.025265421461	0.036140295577
2	2767	26.061405717038	0.188839877651
2	2773	26.250245594689	0.047198183216
2	2778	26.297443777905	0.119358544925
2	2786	26.41680232283	0.002078407655
2	2788	26.418880730485	0.007734616013
2	2793	26.426615346498	0.006325308175
2	2798	26.432940654673	0.04592311598
2	2806	26.478863770653	0.008909773985
2	2811	26.487773544638	0.09084171291
2	2816	26.578615257548	0.071550142357
2	2822	26.650165399905	0.030068420798
2	2828	26.680233820703	0.062239066324
2	2833	26.742472887027	0.103813635862
2	2839	26.846286522889	0.020369113721
2	2844	26.86665563661	0.042001586047
2	2849	26.908657222657	0.072133182481
2	2854	26.980790405138	0.014975686789
2	2859	26.995766091927	0.030022973072
2	2864	27.025789064999	0.223779696209
2	2869	27.249568761208	0.03945214454
2	2874	27.289020905748	0.029657625232
2	2879	27.31867853098	0.062636153822
2	2884	27.381314684802	0.068505160882
2	2889	27.449819845684	0.110083511943
2	2894	27.559903357627	0.030510025218
2	2899	27.590413382845	0.057596540019
2	2904	27.648009922864	0.076720401706
2	2909	27.72473032457	0.067631105444
2	2914	27.792361430014	0.027840571281
2	2919	27.820202001295	0.189947484047
2	2927	28.010149485342	0.029034382082
2	2933	28.039183867424	0.154490066472
2	2939	28.193673933896	0.054521638582
2	2945	28.248195572478	0.024349723601
2	2950	28.272545296079	0.086270866913
2	2955	28.358816162992	0.065125897803
2	2961	28.423942060795	0.004785701597
2	2963	28.428727762392	0.055028809246
2	2971	28.483756571638	0.001700458495
2	2973	28.485457030133	0.103900113168
2	2981	28.589357143301	0.072720529512
2	2988	28.662077672813	0.0800106233
2	2994	28.742088296113	0.001908971975
2	2996	28.743997268088	0.008484956629
2	3001	28.752482224717	0.025997446914
2	3009	28.778479671631	0.111909739149
2	3016	28.89038941078	0.062935871055
2	3021	28.953325281835	0.073339890869
2	3027	29.026665172704	0.0174575297
2	3033	29.044122702404	0.01775184436
2	3038	29.061874546764	0.029385985001
2	3043	29.091260531765	0.1374047169
2	3048	29.228665248665	0.038685994574
2	3053	29.267351243239	0.007011355777
2	3056	29.274362599016	0.014985394807
2	3064	29.289347993823	0.022779593579
2	3069	29.312127587402	0.017061730259
2	3074	29.329189317661	0.056229138678
2	3079	29.385418456339	0.055262054447
2	3084	29.440680510786	0.022994984986
2	3089	29.463675495772	0.023891860591
2	3094	29.487567356363	0.033242209766
2	3099	29.520809566129	0.032808291732
2	3104	29.553617857861	0.046832564146
2	3109	29.600450422007	0.015868047988
2	3114	29.616318469995	0.131455186323
2	3119	29.747773656318	0.007111310919
2	3121	29.754884967237	0.069960805411
2	3129	29.824845772648	0.03837323751
2	3134	29.863219010158	0.049626368821
2	3140	29.912845378979	0.045161418169
2	3145	29.958006797148	0.095197131971
2	3150	30.053203929119	0.002881998301
2	3152	30.05608592742	0.030023328882
2	3160	30.086109256302	0.021803208852
2	3165	30.107912465154	0.023751436956
2	3170	30.13166390211	0.046316668018
2	3175	30.177980570128	0.015616271877
2	3180	30.193596842005	0.004183139489
2	3182	30.197779981494	0.128734248356
2	3191	30.32651422985	0.03894538765
2	3196	30.3654596175	0.140697477674
2	3201	30.506157095174	0.186164306421
2	3208	30.692321401595	0.033657021317
2	3213	30.725978422912	0.115342691105
2	3219	30.841321114017	0.090255377674
2	3225	30.931576491691	0.211141950782
2	3232	31.142718442473	0.010779050619
2	3237	31.153497493092	0.036513101181
2	3242	31.190010594273	0.004934847406
2	3244	31.194945441679	0.048881199554
2	3254	31.243826641233	0.103005883082
2	3259	31.346832524315	0.110720365367
2	3264	31.457552889682	0.078261196282
2	3269	31.535814085964	0.018414071776
2	3274	31.55422815774	0.010925140938
2	3279	31.565153298678	0.151659380936
2	3288	31.716812679614	0.033918130012
2	3294	31.750730809626	0.00476777928
2	3296	31.755498588906	0.001746016087
2	3298	31.757244604993	0.013619731747
2	3306	31.77086433674	0.007967304205
2	3311	31.778831640945	0.001521307329
2	3313	31.780352948274	0.010018652617
2	3321	31.790371600891	0.029636162183
2	3329	31.820007763074	0.065324343923
2	3335	31.885332106997	0.029383527317
2	3340	31.914715634314	0.00639767895
2	3342	31.921113313264	0.055277875786
2	3351	31.97639118905	0.059531892609
2	3357	32.035923081659	0.008852259168
2	3362	32.044775340827	0.128084583095
2	3367	32.172859923922	0.007910369114
2	3372	32.180770293036	0.002494541164
2	3374	32.1832648342	0.140078208882
2	3384	32.323343043082	0.021885223849
2	3389	32.345228266931	0.020763934326
2	3394	32.365992201257	0.084052950922
2	3399	32.450045152179	0.103577758023
2	3405	32.553622910202	0.049558250741
2	3410	32.603181160943	0.012230752679
2	3415	32.615411913622	0.00705410731
2	3417	32.622466020932	0.00785216076
2	3422	32.630318181692	0.035349558708
2	3430	32.6656677404	0.065952014816
2	3437	32.731619755216	0.161891478216
2	3442	32.893511233432	0.033042994115
2	3447	32.926554227547	0.018122924634
2	3452	32.944677152181	0.005592777271
2	3454	32.950269929452	0.043110467543
2	3464	32.993380396995	0.023365805583
2	3469	33.016746202578	0.031781470938
2	3474	33.048527673516	0.019976054899
2	3479	33.068503728415	0.036686213339
2	3484	33.105189941754	0.109047505465
2	3490	33.214237447219	0.002685279871
2	3492	33.21692272709	0.002082759627
2	3494	33.219005486717	0.002322033638
2	3496	33.221327520355	0.000624935135
2	3501	33.22195245549	0.068535693673
2	3516	33.290488149163	0.146347727757
2	3523	33.43683587692	0.100250858993
2	3529	33.537086735913	0.002822581752
2	3531	33.539909317665	0.107692382313
2	3541	33.647601699978	0.024744806257
2	3546	33.672346506235	0.023729115189
2	3551	33.696075621424	0.024351566799
2	3556	33.720427188223	0.087260300298
2	3563	33.807687488521	0.017409692033
2	3568	33.825097180554	0.0150436426
2	3573	33.840140823154	0.002769809434
2	3575	33.842910632588	0.03066355446
2	3583	33.873574187048	0.033347896917
2	3588	33.906922083965	0.00579619946
2	3590	33.912718283425	0.058558985634
2	3600	33.971277269059	0.007757438796
2	3605	33.979034707855	0.020040487201
2	3610	33.999075195056	0.033418905197
2	3616	34.032494100253	0.004377125321
2	3618	34.036871225574	0.020481900123
2	3626	34.057353125697	0.004467619746
2	3628	34.061820745443	0.004550768064
2	3633	34.066371513507	0.023934915666
2	3641	34.090306429173	0.036026708644
2	3647	34.126333137817	0.020243065601
2	3653	34.146576203418	0.108821951346
2	3659	34.255398154764	0.145451410899
2	3665	34.400849565663	0.005400799256
2	3667	34.406250364919	0.050922396268
2	3675	34.457172761187	0.05095029834
2	3680	34.508123059527	0.013476551354
2	3685	34.521599610881	0.029713822694
2	3690	34.551313433575	0.001070538456
2	3692	34.552383972031	0.152058978511
2	3703	34.704442950542	0.014813880525
2	3708	34.719256831067	0.07985979883
2	3714	34.799116629897	0.068467358083
2	3719	34.86758398798	0.029596228407
2	3724	34.897180216387	0.01059266835
2	3729	34.907772884737	0.005978937042
2	3731	34.913751821779	0.043861404682
2	3739	34.957613226461	0.007336129739
2	3742	34.9649493562	0.009393248186
2	3750	34.974342604386	0.019357060676
2	3755	34.993699665062	0.01504923935
2	3760	35.008748904412	0.091176322019
2	3766	35.099925226431	0.058631938956
2	3771	35.158557165387	0.006790295076
2	3773	35.165347460463	0.018090293011
2	3781	35.183437753474	0.024464349271
2	3786	35.207902102745	0.015286996782
2	3791	35.223189099527	0.009994104577
2	3796	35.233183204104	0.010429970448
2	3801	35.243613174552	0.021045664751
2	3806	35.264658839303	0.022060517075
2	3812	35.286719356378	0.053904033012
2	3817	35.34062338939	0.008199908523
2	3822	35.348823297913	0.009143554174
2	3827	35.357966852087	0.215567007319
2	3834	35.573533859406	0.027176864338
2	3840	35.600710723744	0.108991787264
2	3846	35.709702511008	0.006358332859
2	3848	35.716060843867	0.020445066483
2	3856	35.73650591035	0.128895046562
2	3862	35.865400956912	0.029916964204
2	3868	35.895317921116	0.051177732279
2	3873	35.946495653395	0.009742755326
2	3878	35.956238408721	0.013796243593
2	3883	35.970034652314	0.043467990266
2	3889	36.01350264258	0.043237559835
2	3894	36.056740202415	0.070838890762
2	3899	36.127579093177	0.060084777004
2	3904	36.187663870181	0.006048568516
2	3906	36.193712438697	0.044145700984
2	3914	36.237858139681	0.078036554045
2	3920	36.315894693726	0.019919005146
2	3925	36.335813698872	0.095655003796
2	3930	36.431468702668	0.076599919416
2	3936	36.508068622084	0.029518940784
2	3941	36.537587562868	0.059011805657
2	3946	36.596599368525	0.012273295691
2	3951	36.608872664216	0.041299976957
2	3956	36.650172641173	0.013444421276
2	3961	36.663617062449	0.025036550382
2	3966	36.688653612831	0.016049298226
2	3971	36.704702911057	0.078590932915
2	3977	36.783293843972	0.101527605048
2	3982	36.88482144902	0.023438265982
2	3987	36.908259715002	0.110706085247
2	3992	37.018965800249	0.189137799798
2	3997	37.208103600047	0.051392290776
2	4003	37.259495890823	0.033121153519
2	4008	37.292617044342	0.161290572789
2	4015	37.453907617131	0.048202429869
2	4020	37.502110047	0.0462655439
2	4026	37.5483755909	0.010293447578
2	4031	37.558669038478	0.01553579676
2	4036	37.574204835238	0.006900764433
2	4038	37.581105599671	0.017794751071
2	4046	37.598900350742	0.032063836511
2	4052	37.630964187253	0.032980685719
2	4057	37.663944872972	0.013235124876
2	4062	37.677179997848	0.074864324723
2	4067	37.752044322571	0.050050623124
2	4074	37.802094945695	0.005612976508
2	4076	37.807707922203	0.022459656531
2	4085	37.830167578734	0.145127517156
2	4092	37.97529509589	0.033760807
2	4097	38.00905590289	0.023639845604
2	4102	38.032695748494	0.107991632763
2	4107	38.140687381257	0.091387752889
2	4113	38.232075134146	0.011151571533
2	4118	38.243226705679	0.106492619077
2	4123	38.349719324756	0.081960204949
2	4130	38.431679529705	0.047604256612
2	4135	38.479283786317	0.004850176153
2	4137	38.48413396247	0.007440086905
2	4142	38.491574049375	0.015462438946
2	4150	38.507036488321	0.258464250336
2	4156	38.765500738657	0.131116810592
2	4164	38.896617549249	0.003105156408
2	4166	38.899722705657	0.035980092877
2	4174	38.935702798534	0.015225685502
2	4179	38.950928484036	0.002182217976
2	4182	38.953110702012	0.012205707188
2	4187	38.9653164092	0.036513282093
2	4196	39.001829691293	0.00802971876
2	4201	39.009859410053	0.168600853488
2	4206	39.178460263541	0.009158904152
2	4212	39.187619167693	0.004374951116
2	4214	39.191994118809	0.035426958594
2	4222	39.227421077403	0.041271659894
2	4227	39.268692737297	0.013616228069
2	4232	39.282308965366	0.185198215872
2	4238	39.467507181238	0.047244672712
2	4243	39.51475185395	0.044670591283
2	4250	39.559422445233	0.057198451034
2	4256	39.616620896267	0.283622805511
2	4265	39.900243701778	0.006850778538
2	4267	39.907094480316	0.016585932869
2	4275	39.923680413185	0.073092942769
2	4281	39.996773355954	0.037964152131
2	4286	40.034737508085	0.037912063796
2	4291	40.072649571881	0.156214479887
2	4297	40.228864051768	0.026142848969
2	4302	40.255006900737	0.012949843969
2	4307	40.267956744706	0.016938958612
2	4312	40.284895703318	0.081851423861
2	4317	40.366747127179	0.003803578952
2	4319	40.370550706131	0.073907857908
2	4328	40.444458564039	0.004114092324
2	4330	40.448572656363	0.059967282643
2	4339	40.508539939006	0.028662776638
2	4344	40.537202715644	0.072262259807
2	4351	40.609464975451	0.138928791782
2	4356	40.748393767233	0.001590949466
2	4358	40.749984716699	0.009431044566
2	4363	40.759415761265	0.037897673236
2	4372	40.797313434501	0.054973525881
2	4377	40.852286960382	0.048172011975
2	4384	40.900458972357	0.186895537337
2	4390	41.087354509694	0.004632645879
2	4392	41.091987155573	0.000918021982
2	4394	41.092905177555	0.009979433216
2	4402	41.102884610771	0.044837524211
2	4411	41.147722134982	0.070354621389
2	4416	41.218076756371	0.049286564459
2	4422	41.26736332083	0.037580875669
2	4428	41.304944196499	0.20777346174
2	4433	41.512717658239	0.044643687889
2	4438	41.557361346128	0.019399763048
2	4443	41.576761109176	0.088804275893
2	4451	41.665565385069	0.004237577178
2	4453	41.669802962247	0.012108521542
2	4461	41.681911483789	0.008501354271
2	4466	41.69041283806	0.000639705826
2	4468	41.691052543886	0.097236093537
2	4477	41.788288637423	0.026240002395
2	4482	41.814528639818	0.010847926003
2	4487	41.825376565821	0.013246878917
2	4492	41.838623444738	0.036594353137
2	4497	41.875217797875	0.022865599722
2	4502	41.898083397597	0.038141451328
2	4507	41.936224848925	0.048417546078
2	4512	41.984642395003	0.023972979788
2	4517	42.008615374791	0.179412803001
2	4523	42.188028177792	0.125104393631
2	4528	42.313132571423	0.121685771818
2	4533	42.434818343241	0.077709311302
2	4539	42.512527654543	0.041144995737
2	4544	42.55367265028	0.041229638474
2	4549	42.594902288754	0.067765538765
2	4554	42.662667827519	0.020173185071
2	4559	42.68284101259	0.045563520666
2	4565	42.728404533256	0.058241157455
2	4570	42.786645690711	0.001028263449
2	4573	42.78767395416	0.012024182043
2	4578	42.799698136203	0.035077530778
2	4586	42.834775666981	0.060338815774
2	4593	42.895114482755	0.243864578109
2	4600	43.138979060864	0.051192773828
2	4606	43.190171834692	0.016242394738
2	4611	43.20641422943	0.142378137298
2	4617	43.348792366728	0.035325304794
2	4623	43.384117671522	0.133351217763
2	4629	43.517468889285	0.061347839719
2	4634	43.578816729004	0.009910392648
2	4639	43.588727121652	0.022671016268
2	4644	43.61139813792	0.011317765277
2	4649	43.622715903197	0.038667086959
2	4654	43.661382990156	0.022047132878
2	4659	43.683430123034	0.020729909169
2	4664	43.704160032203	0.020929102351
2	4669	43.725089134554	0.018015924906
2	4674	43.74310505946	0.021474090048
2	4679	43.764579149508	0.024507723215
2	4685	43.789086872723	0.073733911187
2	4690	43.86282078391	0.034126768388
2	4695	43.896947552298	0.221073039401
2	4703	44.118020591699	0.067920913925
2	4709	44.185941505624	0.15322104171
2	4715	44.339162547334	0.026861726717
2	4720	44.366024274051	0.089862764261
2	4725	44.455887038312	0.085564747805
2	4732	44.541451786117	0.034303873477
2	4737	44.575755659594	0.023942597206
2	4742	44.5996982568	0.009184148081
2	4747	44.608882404881	0.008425501466
2	4752	44.617307906347	0.008512658893
2	4757	44.62582056524	0.082105085329
2	4763	44.707925650569	0.026448598389
2	4768	44.734374248958	0.052144393195
2	4775	44.786518642153	0.497567763527
2	4783	45.28408640568	0.033110036537
2	4788	45.317196442217	0.021492006814
2	4793	45.338688449031	0.325523842261
2	4800	45.664212291292	0.010985659904
2	4806	45.675197951196	0.012325465832
2	4811	45.687523417028	0.095845085727
2	4816	45.783368502755	0.015046978494
2	4821	45.798415481249	0.005999291434
2	4823	45.804414772683	0.011228680213
2	4831	45.815643452896	0.036963096612
2	4837	45.852606549508	0.040610676164
2	4843	45.893217225672	0.005730167282
2	4845	45.898947392954	0.125937451728
2	4853	46.024884844682	0.066134349788
2	4859	46.09101919447	0.016651242821
2	4864	46.107670437291	0.022424549676
2	4869	46.130094986967	0.048120969085
2	4874	46.178215956052	0.072570600286
2	4879	46.250786556338	0.00723167036
2	4884	46.258018226698	0.084499885996
2	4890	46.342518112694	0.200315873046
2	4898	46.54283398574	0.066337911116
2	4903	46.609171896856	0.017288682615
2	4908	46.626460579471	0.169048986907
2	4914	46.795509566378	0.081543733052
2	4919	46.87705329943	0.057764079506
2	4924	46.934817378936	0.012746262247
2	4929	46.947563641183	0.090155450898
2	4935	47.037719092081	0.034719421098
2	4940	47.072438513179	0.002459352148
2	4942	47.074897865327	0.038131286942
2	4950	47.113029152269	0.026826529255
2	4955	47.139855681524	0.180766058447
2	4963	47.320621739971	0.004034042787
2	4965	47.324655782758	0.002792681433
2	4967	47.327448464191	0.109851424201
2	4979	47.437299888392	0.028340956529
2	4985	47.465640844921	0.022261830442
2	4990	47.487902675363	0.067596096673
2	4996	47.555498772036	0.010499088287
2	5001	47.565997860323	0.036506571267
2	5008	47.60250443159	0.052883266251
2	5013	47.655387697841	0.029577513072
2	5018	47.684965210913	0.04376087578
2	5023	47.728726086693	0.001097677403
2	5025	47.729823764096	0.02348206497
2	5034	47.753305829066	0.033510446004
2	5039	47.78681627507	0.024027294934
2	5044	47.810843570004	0.049747256944
2	5050	47.860590826948	0.012390240606
2	5055	47.872981067554	0.049949643186
2	5060	47.92293071074	0.093867978639
2	5067	48.016798689379	0.027806805514
2	5073	48.044605494893	0.00384223621
2	5075	48.048447731103	0.061495833092
2	5083	48.109943564195	0.147946102067
2	5089	48.257889666262	0.001034348904
2	5091	48.258924015166	0.048218400404
2	5100	48.30714241557	0.028836586692
2	5105	48.335979002262	0.015319402678
2	5110	48.35129840494	0.040605423103
2	5115	48.391903828043	0.010909080583
2	5120	48.402812908626	0.0342269861
2	5125	48.437039894726	0.025558870516
2	5130	48.462598765242	0.021888482761
2	5136	48.484487248003	0.060006290187
2	5141	48.54449353819	0.002233230651
2	5143	48.546726768841	0.025236455584
2	5151	48.571963224425	0.105622219629
2	5158	48.677585444054	0.014985992209
2	5163	48.692571436263	0.008501078496
2	5169	48.701072514759	0.0357564276
2	5175	48.736828942359	0.030119201817
2	5180	48.766948144176	0.110174543489
2	5187	48.877122687665	0.005468225661
2	5189	48.882590913326	0.120863362457
2	5197	49.003454275783	0.137926489915
2	5202	49.141380765698	0.039035246001
2	5207	49.180416011699	0.038588949505
2	5212	49.219004961204	0.058837379649
2	5217	49.277842340853	0.031335083655
2	5223	49.309177424508	0.014363896299
2	5228	49.323541320807	0.013902380974
2	5233	49.337443701781	0.011690326767
2	5238	49.349134028548	0.006712560451
2	5240	49.355846588999	0.009488068016
2	5245	49.365334657015	0.022934839522
2	5253	49.388269496537	0.003107016775
2	5255	49.391376513312	0.01896150831
2	5263	49.410338021622	0.033925712296
2	5268	49.444263733918	0.130382533521
2	5275	49.574646267439	0.124350079483
2	5281	49.698996346922	0.077811274501
2	5287	49.776807621423	0.055468687463
2	5293	49.832276308886	0.053645475526
2	5298	49.885921784412	0.117797165594
2	5303	50.003718950006	0.060751205043
2	5308	50.064470155049	0.013864824775
2	5313	50.078334979824	0.063949876644
2	5318	50.142284856468	0.180056860699
2	5325	50.322341717167	0.005727587652
2	5328	50.328069304819	0.008121495315
2	5333	50.336190800134	0.035693309527
2	5342	50.371884109661	0.066945063873
2	5347	50.438829173534	0.040004014768
2	5353	50.478833188302	0.029905280387
2	5358	50.508738468689	0.061566088946
2	5363	50.570304557635	0.060573360114
2	5368	50.630877917749	0.026190869584
2	5374	50.657068787333	0.00035176953
2	5376	50.657420556863	0.000659544719
2	5378	50.658080101582	0.033564085552
2	5390	50.691644187134	0.139791747313
2	5395	50.831435934447	0.105696240134
2	5402	50.937132174581	0.105910497529
2	5407	51.04304267211	0.020714768189
2	5412	51.063757440299	0.012992744707
2	5418	51.076750185006	0.012934441925
2	5423	51.089684626931	0.070481637316
2	5429	51.160166264247	0.038469643879
2	5434	51.198635908126	0.016182498677
2	5440	51.214818406803	0.071576639409
2	5445	51.286395046212	0.023986503267
2	5450	51.310381549479	0.017881786768
2	5455	51.328263336247	0.02639102642
2	5460	51.354654362667	0.045107259101
2	5465	51.399761621768	0.045018979173
2	5470	51.444780600941	0.09807782001
2	5475	51.542858420951	0.026017204463
2	5480	51.568875625414	0.0028339699
2	5482	51.571709595314	0.084266177612
2	5491	51.655975772926	0.03432829761
2	5496	51.690304070536	0.150135351873
2	5501	51.840439422409	0.06501491806
2	5506	51.905454340469	0.02112766733
2	5511	51.926582007799	0.090628503105
2	5516	52.017210510904	0.090048375022
2	5521	52.107258885926	0.249642695933
2	5528	52.356901581859	0.000543776645
2	5530	52.357445358504	0.006385605709
2	5532	52.363830964213	0.017663744388
2	5540	52.381494708601	0.220478152348
2	5550	52.601972860949	0.061853388968
2	5557	52.663826249917	0.077349330221
2	5562	52.741175580138	0.042760903443
2	5568	52.783936483581	0.059513444921
2	5574	52.843449928502	0.002544216362
2	5576	52.845994144864	0.040537740751
2	5584	52.886531885615	0.03209407057
2	5589	52.918625956185	0.157315275865
2	5595	53.07594123205	0.039603797088
2	5600	53.115545029138	0.003632377287
2	5602	53.119177406425	0.136877149049
2	5611	53.256054555474	0.01797134227
2	5616	53.274025897744	0.00481308777
2	5618	53.278838985514	0.038088029311
2	5626	53.316927014825	0.093028055233
2	5633	53.409955070058	0.07543461045
2	5638	53.485389680508	0.040094929761
2	5643	53.525484610269	0.108704778578
2	5649	53.634189388847	0.006878514186
2	5651	53.641067903033	0.014721887706
2	5659	53.655789790739	0.002822829349
2	5661	53.658612620088	0.087488900527
2	5669	53.746101520615	0.070782944629
2	5675	53.816884465244	0.010892675302
2	5680	53.827777140546	0.026605476754
2	5685	53.8543826173	0.054744955633
2	5691	53.909127572933	0.077715757097
2	5697	53.98684333003	0.015064542346
2	5702	54.001907872376	0.107724815945
2	5708	54.109632688321	0.019605629985
2	5713	54.129238318306	0.002260297201
2	5716	54.131498615507	0.014801500167
2	5724	54.146300115674	0.027784508691
2	5730	54.174084624365	0.02627562689
2	5735	54.200360251255	0.001941364178
2	5737	54.202301615433	0.023740284784
2	5745	54.226041900217	0.054634868199
2	5751	54.280676768416	0.303978864567
2	5762	54.584655632983	0.139617675914
2	5768	54.724273308897	0.040058469266
2	5773	54.764331778163	0.01286596961
2	5778	54.777197747773	0.031881184061
2	5785	54.809078931834	0.115013122217
2	5791	54.924092054051	0.004434589024
2	5793	54.928526643075	0.038456115132
2	5802	54.966982758207	0.008711625406
2	5807	54.975694383613	0.074400613906
2	5812	55.050094997519	0.001820783621
2	5814	55.05191578114	0.003102905453
2	5816	55.055018686593	0.096161046632
2	5828	55.151179733225	0.013414563846
2	5833	55.164594297071	0.025059319179
2	5838	55.18965361625	0.035202976305
2	5845	55.224856592555	0.023608592071
2	5850	55.248465184626	0.003244213759
2	5852	55.251709398385	0.068135392069
2	5860	55.319844790454	0.018466600126
2	5866	55.33831139058	0.051358793855
2	5871	55.389670184435	0.001800788389
2	5873	55.391470972824	0.004668614975
2	5875	55.396139587799	0.051351037881
2	5887	55.44749062568	0.014071175618
2	5892	55.461561801298	0.018749726774
2	5897	55.480311528072	0.027034705545
2	5902	55.507346233617	0.014368187184
2	5907	55.521714420801	0.006046139915
2	5909	55.527760560716	0.04906329824
2	5917	55.576823858956	0.067951427458
2	5924	55.644775286414	0.013580153999
2	5929	55.658355440413	0.011351153245
2	5934	55.669706593658	0.286040421215
2	5942	55.955747014873	0.020878960532
2	5947	55.976625975405	0.07698441875
2	5954	56.053610394155	0.009688412259
2	5959	56.063298806414	0.120176852743
2	5964	56.183475659157	0.149770817171
2	5972	56.333246476328	0.055846470807
2	5977	56.389092947135	0.081760429433
2	5983	56.470853376568	0.035315929562
2	5988	56.50616930613	0.051746387976
2	5994	56.557915694106	0.064553975607
2	5999	56.622469669713	0.036274238366
2	6004	56.658743908079	0.127223848439
2	6009	56.785967756518	0.064763497678
2	6014	56.850731254196	0.033532371202
2	6019	56.884263625398	0.036552738782
2	6025	56.92081636418	0.05564890117
2	6030	56.97646526535	0.080958771265
2	6035	57.057424036615	0.000112488741
2	6037	57.057536525356	0.035512358115
2	6045	57.093048883471	0.077887162144
2	6051	57.170936045615	0.084143705418
2	6056	57.255079751033	0.020360301141
2	6061	57.275440052174	0.024372944025
2	6066	57.299812996199	0.059160511321
2	6071	57.35897350752	0.091692256716
2	6076	57.450665764236	0.035241113257
2	6081	57.485906877493	0.054199800503
2	6087	57.540106677996	0.044440202649
2	6092	57.584546880645	0.02380794909
2	6099	57.608354829735	0.010683198928
2	6104	57.619038028663	0.027093592023
2	6109	57.646131620686	0.036499809813
2	6114	57.682631430499	0.216201113448
2	6121	57.898832543947	0.022170935825
2	6126	57.921003479772	0.033462741056
2	6131	57.954466220828	0.016550764446
2	6136	57.971016985274	0.094111429825
2	6143	58.065128415099	0.050632279988
2	6148	58.115760695087	0.042463531027
2	6155	58.158224226114	0.009247242187
2	6161	58.167471468301	0.125527706118
2	6167	58.292999174419	0.087175391237
2	6173	58.380174565656	0.006088789024
2	6175	58.38626335468	0.026118601263
2	6184	58.412381955943	0.16570798605
2	6191	58.578089941993	0.032761051152
2	6196	58.610850993145	0.006095435412
2	6198	58.616946428557	0.021816832306
2	6206	58.638763260863	0.040502360058
2	6213	58.679265620921	0.030102862259
2	6219	58.70936848318	0.004112151109
2	6221	58.713480634289	0.138806975481
2	6231	58.85228760977	0.013496218886
2	6236	58.865783828656	0.02229916903
2	6242	58.888082997686	0.006428481278
2	6244	58.894511478964	0.000379327921
2	6246	58.894890806885	0.106937864517
2	6257	59.001828671402	0.047710378685
2	6262	59.049539050087	0.083430590519
2	6267	59.132969640606	0.064048039561
2	6272	59.197017680167	0.093942160537
2	6278	59.290959840704	0.001521339013
2	6280	59.292481179717	0.084123366153
2	6290	59.37660454587	0.021829829916
2	6295	59.398434375786	0.115517666948
2	6301	59.513952042734	0.057284084049
2	6306	59.571236126783	0.073562688156
2	6313	59.644798814939	0.047109842048
2	6319	59.691908656987	0.055933187771
2	6324	59.747841844758	0.037352697072
2	6329	59.78519454183	0.015022937495
2	6334	59.800217479325	0.026385330263
2	6339	59.826602809588	0.00046065968
2	6341	59.827063469268	0.078122264612
2	6349	59.90518573388	0.002888602505
2	6351	59.908074336385	0.025834498243
2	6359	59.933908834628	0.041866255936
2	6364	59.975775090564	0.023003125984
2	6370	59.998778216548	0.009403849211
2	6375	60.008182065759	0.075867030981
2	6383	60.08404909674	0.003366908177
2	6385	60.087416004917	0.048586032374
2	6394	60.136002037291	0.002301096717
2	6396	60.138303134008	0.0817135628
2	6404	60.220016696808	0.049544974765
2	6410	60.269561671573	0.023378290448
2	6416	60.292939962021	0.000112595735
2	6418	60.293052557756	0.015541720216
2	6423	60.308594277972	0.004460442424
2	6428	60.313054720396	0.032600976921
2	6436	60.345655697317	0.03313490288
2	6441	60.378790600197	0.007796644392
2	6443	60.386587244589	0.022441725329
2	6452	60.409028969918	0.042909622372
2	6457	60.45193859229	0.048894414334
2	6464	60.500833006624	0.229594132158
2	6472	60.730427138782	0.00065595785
2	6474	60.731083096632	0.01765501082
2	6483	60.748738107452	0.03830236168
2	6488	60.787040469132	0.071468101197
2	6495	60.858508570329	0.165684631988
2	6502	61.024193202317	0.095854686317
2	6509	61.120047888634	0.028845335114
2	6514	61.148893223748	0.031774722034
2	6519	61.180667945782	0.00494575288
2	6521	61.185613698662	0.084970323622
2	6530	61.270584022284	0.114151112098
2	6536	61.384735134382	0.15572297822
2	6542	61.540458112602	0.020097941214
2	6548	61.560556053816	0.077565624262
2	6553	61.638121678078	0.010557712263
2	6558	61.648679390341	0.009017379813
2	6563	61.657696770154	0.166271806779
2	6568	61.823968576933	0.012932599174
2	6575	61.836901176107	0.083027055948
2	6582	61.919928232055	0.017327306335
2	6587	61.93725553839	0.034589519525
2	6592	61.971845057915	0.002838304549
2	6594	61.974683362464	0.002153407169
2	6596	61.976836769633	0.002678081653
2	6598	61.979514851286	0.292842862585
2	6614	62.272357713871	0.002299209159
2	6616	62.27465692303	0.01876686477
2	6624	62.2934237878	0.027293196678
2	6629	62.320716984478	0.085256448162
2	6634	62.40597343264	0.044639168227
2	6640	62.450612600867	0.002564649343
2	6642	62.45317725021	0.101090064882
2	6651	62.554267315092	0.07343237809
2	6656	62.627699693182	0.022674809737
2	6661	62.650374502919	0.091191966645
2	6667	62.741566469564	0.018201161044
2	6672	62.759767630608	0.085218181322
2	6678	62.84498581193	0.127159954798
2	6684	62.972145766728	0.03722114019
2	6689	63.009366906918	0.108087332789
2	6695	63.117454239707	0.047143548773
2	6701	63.16459778848	0.045992475976
2	6706	63.210590264456	0.013953322603
2	6711	63.224543587059	0.003168710998
2	6713	63.227712298057	0.034950291105
2	6721	63.262662589162	0.043830459374
2	6727	63.306493048536	0.095765446012
2	6732	63.402258494548	0.169016223216
2	6738	63.571274717764	0.009916000404
2	6743	63.581190718168	0.044154524001
2	6749	63.625345242169	0.058536029372
2	6754	63.683881271541	0.013293657504
2	6759	63.697174929045	0.126858191853
2	6765	63.824033120898	0.037542346685
2	6771	63.861575467583	0.067459320865
2	6776	63.929034788448	0.051229598959
2	6782	63.980264387407	0.025289323939
2	6787	64.005553711346	0.035048701394
2	6793	64.04060241274	0.125503192066
2	6798	64.166105604806	0.111516883353
2	6803	64.277622488159	0.017935113884
2	6808	64.295557602043	0.004490171162
2	6810	64.300047773205	0.02292271844
2	6819	64.322970491645	0.088170840949
2	6824	64.411141332594	0.019030256877
2	6829	64.430171589471	0.030643823765
2	6835	64.460815413236	0.014319392272
2	6841	64.475134805508	0.115575773329
2	6846	64.590710578837	0.022645688298
2	6851	64.613356267135	0.001795933413
2	6853	64.615152200548	0.069343391127
2	6862	64.684495591675	0.052186105381
2	6867	64.736681697056	0.036549171708
2	6873	64.773230868764	0.134240174965
2	6879	64.907471043729	0.013228570978
2	6885	64.920699614707	0.030243870721
2	6890	64.950943485428	0.059633190507
2	6895	65.010576675935	0.051696592748
2	6900	65.062273268683	0.007450490931
2	6902	65.069723759614	0.004383547751
2	6907	65.074107307365	0.003867118055
2	6912	65.07797442542	0.033257189543
2	6920	65.111231614963	0.038460946195
2	6926	65.149692561158	0.005865968473
2	6928	65.155558529631	0.136089844048
2	6937	65.291648373679	0.08108668723
2	6943	65.372735060909	0.105090722635
2	6948	65.477825783544	0.000526429326
2	6950	65.47835221287	0.07388121258
2	6960	65.55223342545	0.08660949613
2	6965	65.63884292158	0.008561469346
2	6970	65.647404390926	0.151462977342
2	6979	65.798867368268	0.029756927009
2	6984	65.828624295277	0.033534458892
2	6991	65.862158754169	0.02316012911
2	6996	65.885318883279	0.006218347481
2	6998	65.89153723076	0.070381487256
2	7008	65.961918718016	0.070801401471
2	7013	66.032720119487	0.024899998271
2	7018	66.057620117758	0.00555530162
2	7020	66.063175419378	0.042527337794
2	7030	66.105702757172	0.02294611955
2	7035	66.128648876722	0.026889482271
2	7040	66.155538358993	0.052500998302
2	7045	66.208039357295	0.020178374362
2	7050	66.228217731657	0.081592772383
2	7057	66.30981050404	0.006153395174
2	7059	66.315963899214	1.9322099e-05
2	7061	66.315983221313	0.034441977635
2	7072	66.350425198948	0.143767445723
2	7077	66.494192644671	0.066057004938
2	7083	66.560249649609	0.040273818756
2	7088	66.600523468365	0.050779236245
2	7093	66.65130270461	0.133496620208
2	7100	66.784799324818	0.190651042712
2	7107	66.97545036753	0.017357768558
2	7114	66.992808136088	0.017708391625
2	7119	67.010516527713	0.024218547482
2	7126	67.034735075195	0.076850342197
2	7131	67.111585417392	0.076951642345
2	7136	67.188537059737	0.025175630125
2	7141	67.213712689862	0.089866779145
2	7146	67.303579469007	0.022144234874
2	7151	67.325723703881	0.025458013947
2	7156	67.351181717828	0.010898474842
2	7161	67.36208019267	0.107417690709
2	7166	67.469497883379	0.11221985521
2	7171	67.581717738589	0.013490954776
2	7177	67.595208693365	0.035564579949
2	7182	67.630773273314	0.014391523368
2	7188	67.645164796682	0.011452864062
2	7193	67.656617660744	0.049352164746
2	7198	67.70596982549	0.118271844369
2	7205	67.824241669859	0.007500951573
2	7207	67.831742621432	0.015293181584
2	7215	67.847035803016	0.016655616023
2	7220	67.863691419039	0.002718575569
2	7222	67.866409994608	0.019634090955
2	7231	67.886044085563	0.001857664562
2	7233	67.887901750125	0.125537559144
2	7243	68.013439309269	0.034640432568
2	7248	68.048079741837	0.077702942118
2	7253	68.125782683955	0.019345914001
2	7258	68.145128597956	0.015809695826
2	7263	68.160938293782	0.118892023129
2	7268	68.279830316911	0.000923007943
2	7270	68.280753324854	0.023045922621
2	7278	68.303799247475	0.005130562807
2	7280	68.308929810282	0.023101631424
2	7288	68.332031441706	0.051018468029
2	7294	68.383049909735	0.063474868505
2	7302	68.44652477824	0.001058189584
2	7304	68.447582967824	0.077609192166
2	7313	68.52519215999	0.005380975729
2	7315	68.530573135719	0.004550570835
2	7320	68.535123706554	0.121697569987
2	7329	68.656821276541	0.151604855926
2	7334	68.808426132467	0.096088760028
2	7339	68.904514892495	0.0347846143
2	7344	68.939299506795	0.107156949885
2	7349	69.04645645668	0.017459127351
2	7356	69.063915584031	0.067773598106
2	7361	69.131689182137	0.008036309138
2	7366	69.139725491275	0.039835581112
2	7371	69.179561072387	0.014463027279
2	7376	69.194024099666	0.079213644093
2	7383	69.273237743759	0.053474129757
2	7388	69.326711873516	0.021243542812
2	7394	69.347955416328	0.012912465257
2	7399	69.360867881585	0.103463452399
2	7405	69.464331333984	0.001082499286
2	7407	69.46541383327	0.050017812
2	7415	69.51543164527	0.02585665799
2	7420	69.54128830326	0.04380811087
2	7426	69.58509641413	0.067744455629
2	7431	69.652840869759	0.131598186753
2	7438	69.784439056512	0.011984622418
2	7443	69.79642367893	0.004417159842
2	7445	69.800840838772	0.004556940064
2	7450	69.805397778836	0.029957543899
2	7458	69.835355322735	0.019254988182
2	7463	69.854610310917	0.050565753391
2	7468	69.905176064308	0.043380303118
2	7473	69.948556367426	0.067176594864
2	7478	70.01573296229	0.034601615928
2	7483	70.050334578218	0.024903477797
2	7488	70.075238056015	0.062824534567
2	7494	70.138062590582	0.005319542337
2	7496	70.143382132919	0.00557972821
2	7501	70.148961861129	0.113341330351
2	7510	70.26230319148	0.0532172539
2	7515	70.31552044538	0.004566188843
2	7517	70.320086634223	0.05204176757
2	7525	70.372128401793	0.01396527193
2	7530	70.386093673723	0.084938620127
2	7535	70.47103229385	0.147439015424
2	7541	70.618471309274	0.119035038996
2	7547	70.73750634827	0.000696660459
2	7549	70.738203008729	0.067755661597
2	7557	70.805958670326	0.002661613049
2	7559	70.808620283375	0.001296142848
2	7561	70.809916426223	0.023268923919
2	7573	70.833185350142	0.027234174039
2	7578	70.860419524181	0.017986574485
2	7583	70.878406098666	0.024382042773
2	7588	70.902788141439	0.026998348368
2	7593	70.929786489807	0.002776580537
2	7595	70.932563070344	0.020689669025
2	7603	70.953252739369	0.01494150697
2	7608	70.968194246339	0.031175198846
2	7614	70.999369445185	0.056953613388
2	7619	71.056323058573	0.052552129497
2	7624	71.10887518807	0.029235363449
2	7629	71.138110551519	0.05051846095
2	7635	71.188629012469	0.022585832775
2	7640	71.211214845244	0.073978331146
2	7647	71.28519317639	0.068354052168
2	7652	71.353547228558	0.218575270569
2	7658	71.572122499127	0.000471369629
2	7660	71.572593868756	0.131521847819
2	7669	71.704115716575	0.008955985727
2	7674	71.713071702302	0.118276803422
2	7680	71.831348505724	0.018961144618
2	7686	71.850309650342	0.091097046878
2	7693	71.94140669722	0.004909694176
2	7695	71.946316391396	0.00470865153
2	7700	71.951025042926	0.12766835503
2	7710	72.078693397956	0.016593760677
2	7717	72.095287158633	0.039454662549
2	7722	72.134741821182	0.026234503723
2	7727	72.160976324905	0.09619800094
2	7734	72.257174325845	0.066851853219
2	7739	72.324026179064	0.002475903138
2	7741	72.326502082202	0.034229178251
2	7749	72.360731260453	0.002726152898
2	7751	72.363457413351	0.132315787735
2	7761	72.495773201086	0.034730249451
2	7766	72.530503450537	0.082308280644
2	7772	72.612811731181	0.107555339123
2	7777	72.720367070304	0.071374885689
2	7783	72.791741955993	0.041575448367
2	7788	72.83331740436	0.095118817378
2	7793	72.928436221738	0.051403024729
2	7798	72.979839246467	0.076728554559
2	7803	73.056567801026	0.03161517181
2	7808	73.088182972836	0.087783321245
2	7814	73.175966294081	0.10591037932
2	7819	73.281876673401	0.121454484058
2	7825	73.403331157459	0.001008424922
2	7827	73.404339582381	0.025725701357
2	7835	73.430065283738	0.070336063075
2	7840	73.500401346813	0.012330633559
2	7845	73.512731980372	0.010706550473
2	7850	73.523438530845	0.017895387612
2	7855	73.541333918457	0.130015878785
2	7861	73.671349797242	0.042923795311
2	7867	73.714273592553	0.046991837356
2	7872	73.761265429909	0.001112371907
2	7874	73.762377801816	0.077851433212
2	7882	73.840229235028	0.049402287561
2	7887	73.889631522589	0.047431083339
2	7892	73.937062605928	0.040698957913
2	7897	73.977761563841	0.070724595996
2	7902	74.048486159837	0.000882117132
2	7904	74.049368276969	0.014844547927
2	7909	74.064212824896	0.044852333866
2	7917	74.109065158762	0.005257501683
2	7919	74.114322660445	0.025887813748
2	7927	74.140210474193	0.058129440961
2	7934	74.198339915154	0.081693480357
2	7939	74.280033395511	0.051995070604
2	7945	74.332028466115	0.044992267969
2	7950	74.377020734084	0.250811647035
2	7957	74.627832381119	0.008356863827
2	7962	74.636189244946	0.058600185742
2	7967	74.694789430688	0.022940069072
2	7972	74.71772949976	0.040319109381
2	7977	74.758048609141	0.061766940872
2	7982	74.819815550013	0.011142660672
2	7987	74.830958210685	0.069848007254
2	7992	74.900806217939	0.10764658192
2	7997	75.008452799859	0.016580614658
2	8002	75.025033414517	0.02166592203
2	8007	75.046699336547	0.026963887783
2	8012	75.07366322433	0.048750690328
2	8017	75.122413914658	0.01281782671
2	8022	75.135231741368	0.008238955598
2	8024	75.143470696966	0.202907528424
2	8034	75.34637822539	0.077261713136
2	8041	75.423639938526	0.0019385274
2	8043	75.425578465926	0.111782538292
2	8051	75.537361004218	0.010372283479
2	8056	75.547733287697	0.197761625984
2	8064	75.745494913681	0.007858708498
2	8066	75.753353622179	0.090288444099
2	8074	75.843642066278	0.076094900457
2	8080	75.919736966735	0.008423235855
2	8085	75.92816020259	0.007841942769
2	8087	75.936002145359	0.014468665076
2	8095	75.950470810435	0.005590167772
2	8097	75.956060978207	0.041691146159
2	8105	75.997752124366	0.032568211406
2	8111	76.030320335772	0.070969133255
2	8117	76.101289469027	0.052125933681
2	8122	76.153415402708	0.008580727677
2	8127	76.161996130385	0.012348304178
2	8132	76.174344434563	0.020525739765
2	8137	76.194870174328	0.118951062736
2	8142	76.313821237064	0.045320165455
2	8147	76.359141402519	0.020720663597
2	8154	76.379862066116	0.04942305128
2	8159	76.429285117396	0.019173006486
2	8164	76.448458123882	0.019235617447
2	8169	76.467693741329	0.087589341172
2	8174	76.555283082501	0.029593881287
2	8179	76.584876963788	0.022371362849
2	8184	76.607248326637	0.137159161586
2	8189	76.744407488223	0.006829539281
2	8191	76.751237027504	0.0298100548
2	8199	76.781047082304	0.069614261063
2	8205	76.850661343367	0.40487848055
2	8214	77.255539823917	0.044067609454
2	8219	77.299607433371	0.046118916742
2	8224	77.345726350113	0.082097802564
2	8229	77.427824152677	0.020713667833
2	8234	77.44853782051	0.017924642069
2	8240	77.466462462579	0.002387096233
2	8242	77.468849558812	0.008466513253
2	8247	77.477316072065	0.016643026429
2	8255	77.493959098494	0.017912632215
2	8260	77.511871730709	0.081249762052
2	8266	77.593121492761	0.129634146679
2	8271	77.72275563944	0.03247222278
2	8276	77.75522786222	0.046679175057
2	8281	77.801907037277	0.03345915936
2	8287	77.835366196637	0.041699224225
2	8292	77.877065420862	0.018873893562
2	8297	77.895939314424	0.083393410076
2	8303	77.9793327245	0.010040244581
2	8308	77.989372969081	0.023468131199
2	8313	78.01284110028	0.033282646352
2	8318	78.046123746632	0.003427983042
2	8320	78.049551729674	0.039905086907
2	8329	78.089456816581	0.0064645792
2	8331	78.095921395781	0.011559108085
2	8339	78.107480503866	0.007812073149
2	8341	78.115292577015	0.076509042489
2	8349	78.191801619504	0.021520728951
2	8354	78.213322348455	0.023211740444
2	8359	78.236534088899	0.065381173736
2	8364	78.301915262635	0.031306862693
2	8369	78.333222125328	0.060955704256
2	8374	78.394177829584	0.056376215975
2	8379	78.450554045559	0.01727860153
2	8384	78.467832647089	0.019718753279
2	8389	78.487551400368	0.018918957661
2	8394	78.506470358029	0.022151232959
2	8399	78.528621590988	0.016645129279
2	8404	78.545266720267	0.011352464855
2	8409	78.556619185122	0.043583752771
2	8415	78.600202937893	0.00039352825
2	8417	78.600596466143	0.047255306657
2	8425	78.6478517728	0.112484799343
2	8433	78.760336572143	0.022162068718
2	8438	78.782498640861	0.004819105535
2	8440	78.787317746396	0.042979612991
2	8448	78.830297359387	0.135746951189
2	8455	78.966044310576	0.006800416706
2	8457	78.972844727282	0.002536114725
2	8462	78.975380842007	0.012998440595
2	8467	78.988379282602	0.04414754494
2	8475	79.032526827542	0.001581651172
2	8477	79.034108478714	0.17304850162
2	8486	79.207156980334	0.001528414995
2	8488	79.208685395329	0.075661366459
2	8496	79.284346761788	0.304752036621
2	8503	79.589098798409	0.01091958586
2	8508	79.600018384269	0.066609866075
2	8513	79.666628250344	0.049013090943
2	8519	79.715641341287	0.084603633002
2	8527	79.800244974289	0.063595925354
2	8532	79.863840899643	0.05543275837
2	8537	79.919273658013	0.063363315
2	8542	79.982636973013	0.109667621223
2	8547	80.092304594236	0.042427492857
2	8552	80.134732087093	0.032472022171
2	8558	80.167204109264	0.041862118326
2	8563	80.20906622759	0.043312211109
2	8568	80.252378438699	0.009922331763
2	8573	80.262300770462	0.064164835994
2	8579	80.326465606456	0.025519516816
2	8584	80.351985123272	0.015328873184
2	8589	80.367313996456	0.017242558645
2	8594	80.384556555101	0.06288390689
2	8599	80.447440461991	0.009295514881
2	8604	80.456735976872	0.040538180987
2	8609	80.497274157859	0.00432751868
2	8611	80.501601676539	0.119449516545
2	8619	80.621051193084	0.199808921034
2	8626	80.820860114118	0.021574106323
2	8631	80.842434220441	0.003126143681
2	8634	80.845560364122	0.005809619503
2	8639	80.851369983625	0.025524450649
2	8647	80.876894434274	0.054085000724
2	8652	80.930979434998	0.044457506837
2	8659	80.975436941835	0.019406364221
2	8664	80.994843306056	0.111032234196
2	8671	81.105875540252	0.014354288383
2	8676	81.120229828635	0.130415282048
2	8682	81.250645110683	0.173167476132
2	8689	81.423812586815	0.097138616399
2	8695	81.520951203214	0.011848921555
2	8700	81.532800124769	0.013537856646
2	8705	81.546337981415	0.070870905197
2	8711	81.617208886612	0.052722315396
2	8716	81.669931202008	0.003368105419
2	8718	81.673299307427	0.009989693193
2	8724	81.68328900062	4.5520269e-05
2	8726	81.683334520889	0.022644294698
2	8737	81.705978815587	0.002506733783
2	8739	81.70848554937	0.084883554157
2	8747	81.793369103527	0.013393906676
2	8753	81.806763010203	0.030431490321
2	8758	81.837194500524	0.021047335602
2	8763	81.858241836126	0.001889283133
2	8765	81.860131119259	0.061392879934
2	8773	81.921523999193	0.113804738289
2	8781	82.035328737482	0.000845995724
2	8783	82.036174733206	0.234459653621
2	8793	82.270634386827	0.130294640278
2	8800	82.400929027105	0.032473754085
2	8805	82.43340278119	0.004041594588
2	8807	82.437444375778	0.118263973824
2	8815	82.555708349602	0.052700004478
2	8821	82.60840835408	0.210295639804
2	8828	82.818703993884	0.021699475308
2	8833	82.840403469192	0.00101856602
2	8835	82.841422035212	0.164259317841
2	8843	83.005681353053	0.118289038583
2	8848	83.123970391636	0.032329646639
2	8853	83.156300038275	0.078498481822
2	8858	83.234798520097	0.122406349175
2	8864	83.357204869272	0.177497459728
2	8872	83.534702329	0.029860614936
2	8877	83.564562943936	0.010907856743
2	8882	83.575470800679	0.050389208019
2	8887	83.625860008698	0.066291686782
2	8893	83.69215169548	0.0209152142
2	8898	83.71306690968	0.000302912257
2	8900	83.713369821937	0.016338100502
2	8905	83.729707922439	0.004538597321
2	8910	83.73424651976	0.174446089663
2	8920	83.908692609423	0.045538518107
2	8925	83.95423112753	0.078385592354
2	8930	84.032616719884	0.064767501657
2	8935	84.097384221541	0.004110435499
2	8937	84.10149465704	0.080765786201
2	8947	84.182260443241	0.008929410637
2	8952	84.191189853878	0.003802226053
2	8954	84.194992079931	0.048960043096
2	8962	84.243952123027	0.009698914015
2	8967	84.253651037042	0.042441883141
2	8972	84.296092920183	0.058416463184
2	8978	84.354509383367	0.068064324374
2	8983	84.422573707741	0.100583701493
2	8991	84.523157409234	0.037495659165
2	8996	84.560653068399	0.000815239646
2	8998	84.561468308045	0.032546120615
2	9006	84.59401442866	0.02132201547
2	9011	84.61533644413	0.031731868808
2	9016	84.647068312938	0.045211367903
2	9021	84.692279680841	0.000713773663
2	9023	84.692993454504	0.066923051051
2	9032	84.759916505555	0.00465054658
2	9034	84.764567052135	0.131107134371
2	9043	84.895674186506	0.058080631857
2	9049	84.953754818363	0.044250149409
2	9054	84.998004967772	0.011178222256
2	9059	85.009183190028	0.095874474247
2	9064	85.105057664275	0.004119746447
2	9066	85.109177410722	0.064508397577
2	9074	85.173685808299	0.007106090409
2	9076	85.180791898708	0.00302278061
2	9081	85.183814679318	0.064019439536
2	9090	85.247834118854	0.016507404869
2	9095	85.264341523723	0.02853628272
2	9100	85.292877806443	0.029618904365
2	9105	85.322496710808	0.011396695798
2	9110	85.333893406606	0.000104821119
2	9112	85.333998227725	0.041854928245
2	9120	85.37585315597	0.026806244058
2	9125	85.402659400028	0.014676154808
2	9130	85.417335554836	0.051101183065
2	9136	85.468436737901	0.017150567311
2	9141	85.485587305212	0.023128597635
2	9146	85.508715902847	0.022331271765
2	9151	85.531047174612	0.169687925461
2	9157	85.700735100073	0.135758215254
2	9162	85.836493315327	0.107968939512
2	9168	85.944462254839	0.145169125371
2	9175	86.08963138021	0.002226610004
2	9177	86.091857990214	0.125614312563
2	9186	86.217472302777	0.045658517563
2	9191	86.26313082034	0.018765140387
2	9196	86.281895960727	0.012613746974
2	9201	86.294509707701	0.012163933854
2	9207	86.306673641555	0.061777478518
2	9214	86.368451120073	0.029753531111
2	9219	86.398204651184	0.04535580256
2	9224	86.443560453744	0.007218541955
2	9226	86.450778995699	0.198468906514
2	9234	86.649247902213	0.091981183064
2	9240	86.741229085277	0.008709525586
2	9245	86.749938610863	0.081038245307
2	9250	86.83097685617	0.010783079498
2	9255	86.841759935668	0.151726604757
2	9262	86.993486540425	0.03448184459
2	9268	87.027968385015	0.071844709838
2	9274	87.099813094853	0.16947464405
2	9283	87.269287738903	0.107627362575
2	9288	87.376915101478	0.036364649494
2	9293	87.413279750972	0.062681172607
2	9300	87.475960923579	0.034005695724
2	9306	87.509966619303	0.001130374001
2	9308	87.511096993304	0.02131920389
2	9316	87.532416197194	0.054846343961
2	9322	87.587262541155	0.051404436541
2	9327	87.638666977696	0.078878237398
2	9333	87.717545215094	0.050559568475
2	9339	87.768104783569	0.111895153403
2	9345	87.879999936972	0.025165740564
2	9350	87.905165677536	0.017653144947
2	9355	87.922818822483	0.027904024223
2	9360	87.950722846706	0.005747947127
2	9362	87.956470793833	0.086837321421
2	9372	88.043308115254	0.019788981066
2	9377	88.06309709632	0.059978448802
2	9382	88.123075545122	0.001401872537
2	9384	88.124477417659	0.071683595306
2	9393	88.196161012965	0.198234691205
2	9399	88.39439570417	0.010567212976
2	9404	88.404962917146	0.020104847888
2	9410	88.425067765034	0.008800376979
2	9415	88.433868142013	0.027221583931
2	9420	88.461089725944	0.005314567549
2	9422	88.466404293493	0.025253306996
2	9430	88.491657600489	0.017588807616
2	9435	88.509246408105	0.043289619856
2	9440	88.552536027961	0.034843036041
2	9445	88.587379064002	0.042715735786
2	9450	88.630094799788	0.02915764724
2	9455	88.659252447028	0.075543821881
2	9461	88.734796268909	0.060732341144
2	9467	88.795528610053	0.010530758251
2	9472	88.806059368304	0.062746877158
2	9477	88.868806245462	0.055273934874
2	9485	88.924080180336	0.036551702519
2	9490	88.960631882855	0.169868116178
2	9495	89.130499999033	0.102076009918
2	9500	89.232576008951	0.051056109549
2	9505	89.2836321185	0.2350943405
2	9511	89.518726459	0.045410913651
2	9517	89.564137372651	0.076338955409
2	9523	89.64047632806	0.192125367767
2	9528	89.832601695827	0.073795621269
2	9533	89.906397317096	0.013412388603
2	9538	89.919809705699	0.036694665507
2	9543	89.956504371206	0.043442483863
2	9548	89.999946855069	0.069066836963
2	9553	90.069013692032	0.081617052843
2	9559	90.150630744875	0.00079197858
2	9561	90.151422723455	0.163885720164
2	9569	90.315308443619	0.005723275763
2	9571	90.321031719382	0.106226497658
2	9580	90.42725821704	0.096765465322
2	9586	90.524023682362	0.050043816164
2	9592	90.574067498526	0.000275598206
2	9594	90.574343096732	0.082876360012
2	9602	90.657219456744	0.021004796572
2	9607	90.678224253316	0.054220169998
2	9612	90.732444423314	0.059649663536
2	9617	90.79209408685	0.010187630149
2	9622	90.802281716999	0.124157811726
2	9627	90.926439528725	0.038935205608
2	9632	90.965374734333	0.005967846927
2	9634	90.97134258126	0.048122813208
2	9642	91.019465394468	0.019636224132
2	9647	91.0391016186	0.003242884034
2	9649	91.042344502634	0.197589432674
2	9658	91.239933935308	0.009252421596
2	9663	91.249186356904	1.3441699e-05
2	9665	91.249199798603	0.067032125702
2	9673	91.316231924305	0.105867128874
2	9679	91.422099053179	0.011782854469
2	9684	91.433881907648	0.006971318702
2	9686	91.44085322635	0.082624564716
2	9696	91.523477791066	0.065961565168
2	9701	91.589439356234	0.010062194501
2	9706	91.599501550735	0.087839910327
2	9711	91.687341461062	0.081450315736
2	9717	91.768791776798	0.023651892069
2	9722	91.792443668867	0.000630533994
2	9724	91.793074202861	0.039250219963
2	9733	91.832324422824	0.098146978223
2	9740	91.930471401047	0.021390354197
2	9745	91.951861755244	0.08106015985
2	9751	92.032921915094	0.03760844592
2	9756	92.070530361014	0.00043033129
2	9758	92.070960692304	0.083778863783
2	9767	92.154739556087	0.101246427136
2	9773	92.255985983223	0.024600070354
2	9778	92.280586053577	0.013135076437
2	9783	92.293721130014	0.102674395599
2	9788	92.396395525613	0.013142440545
2	9793	92.409537966158	0.015661631021
2	9799	92.425199597179	0.193634868228
2	9808	92.618834465407	0.002603476278
2	9810	92.621437941685	0.089045702549
2	9820	92.710483644234	0.050429425462
2	9825	92.760913069696	0.096183021206
2	9833	92.857096090902	0.11433584469
2	9838	92.971431935592	0.027492926192
[...]
19	30199	279.987862734784	0.75794353880637
19	30275	280.74580627359	2.6186243651301
19	30641	283.36443063872	3.3265260868664
19	30941	286.690956725586	6.2173528185047
19	31648	292.908309544091	0.0021270239106543
19	31649	292.910436568002	1.1419226781896
19	31782	294.052359246192	3.154456937556
19	32131	297.206816183748	2.255326234002
19	32359	299.46214241775	1.0921825932152
19	32482	300.554325010965	0.49784219179799
19	32547	301.052167202763	2.0409657502206
19	32801	303.093132952984	0.091286273608241
19	32813	303.184419226592	0.17576408648643
19	32840	303.360183313078	0.72494834446395
19	32917	304.085131657542	1.5845669622728
19	33071	305.669698619815	2.3144864470241
19	33310	307.984185066839	0.95926191165175
19	33449	308.943446978491	2.373239989156
19	33687	311.316686967647	1.9864222681242
19	33893	313.303109235771	0.9065591380608
19	34008	314.209668373832	2.5561113040094
19	34334	316.765779677841	1.5117749465752
19	34495	318.277554624416	2.7864389126521
19	34770	321.063993537068	1.574971997996
19	34914	322.638965535064	0.02196711176263
19	34915	322.660932646827	0.18212356180222
19	34953	322.843056208629	1.7423890629721
19	35081	324.585445271601	2.6790322280409
19	35315	327.264477499642	1.0464454962273
19	35447	328.310922995869	2.3530970280797
19	35729	330.664020023949	1.7678747776518
19	35881	332.431894801601	0.021796553302827
19	35892	332.453691354904	5.5001499224378
19	36546	337.953841277342	1.7001889378449
19	36723	339.654030215187	1.713762274789
19	36914	341.367792489976	0.048315585491981
19	36919	341.416108075468	1.4607405721602
19	37072	342.876848647628	0.37245125092833
19	37102	343.249299898556	0.64513137010355
19	37182	343.89443126866	0.17472881043721
19	37194	344.069160079097	3.796887849531
19	37512	347.866047928628	0.4362189740644
19	37573	348.302266902692	1.7236572678019
19	37775	350.025924170494	0.26176891078254
19	37793	350.287693081277	0.75723912125647
19	37865	351.044932202533	1.00338033677
19	37965	352.048312539303	0.53712672236536
19	38021	352.585439261668	0.58737358880091
19	38063	353.172812850469	0.087198842023456
19	38065	353.260011692492	2.9557032896198
19	38377	356.215714982112	1.5344057431306
19	38598	357.750120725243	5.5380859403636
19	39163	363.288206665607	1.7074448982889
19	39306	364.995651563896	4.3015950536638
19	39812	369.29724661756	0.1262464329191
19	39839	369.423493050479	3.4519552812562
19	40209	372.875448331735	2.0845019683671
19	40446	374.959950300102	0.21295000864501
19	40468	375.172900308747	0.49998533747253
19	40518	375.67288564622	0.69686804894614
19	40579	376.369753695166	1.8961146898195
19	40784	378.265868384985	1.0006675345694
19	40901	379.266535919554	0.84379987628972
19	41011	380.110335795844	6.2219055420149
19	41553	386.332241337859	1.1667032892901
19	41711	387.498944627149	1.1123536783638
19	41867	388.611298305513	3.5705844626914
19	42408	392.181882768204	1.2069198158756
19	42571	393.38880258408	4.1672352434748
19	42975	397.556037827555	2.9354320755522
20	1754	16.862625694756	0.19774405487055
20	1782	17.060369749627	3.251172624845
20	2176	20.311542374472	0.96246751265019
20	2269	21.274009887122	4.8565368816979
20	2772	26.13054676882	4.5975049776394
20	3215	30.728051746459	2.6942862092387
20	3522	33.422337955698	4.3514821948936
20	4073	37.773820150592	3.9321724598976
20	4476	41.70599261049	7.8849777846461
20	5280	49.590970395136	0.72827790963574
20	5324	50.319248304772	0.56157556009658
20	5401	50.880823864869	5.4198007249151
20	5971	56.300624589784	0.16842931853895
20	5982	56.469053908323	0.68622256539196
20	6050	57.155276473715	0.35699163873233
20	6086	57.512268112447	0.23888428871426
20	6119	57.751152401161	6.9980083013689
20	6872	64.74916070253	0.99696413106366
20	6977	65.746124833594	0.5140372625417
20	7055	66.260162096136	0.75566233076497
20	7121	67.015824426901	0.0016132364273097
20	7122	67.017437663328	1.3820182660122
20	7299	68.39945592934	1.3453575558649
20	7436	69.744813485205	0.84980757730077
20	7540	70.594621062506	1.1747176067744
20	7679	71.76933866928	1.520189819129
20	7821	73.289528488409	0.88641257637769
20	7932	74.175941064787	4.4136646840091
20	8414	78.589605748796	0.47671267897505
20	8485	79.066318427771	3.2511698705783
20	8798	82.317488298349	1.1219360575924
20	8870	83.439424355941	0.091686598505697
20	8871	83.531110954447	2.7642200643141
20	9203	86.295331018761	0.70420480449135
20	9264	86.999535823252	0.189839124468
20	9281	87.18937494772	3.2292683090099
20	9579	90.41864325673	1.0699045454095
20	9695	91.48854780214	1.2781112936424
20	9827	92.766659095782	1.1455651057674
20	9948	93.912224201549	0.77835980061786
20	10070	94.690584002167	2.25502719619
20	10332	96.945611198357	3.4556702470427
20	10715	100.4012814454	0.055794309963492
20	10716	100.457075755363	1.0202567403372
20	10815	101.4773324957	1.0921758206656
20	10924	102.569508316366	2.2036889883457
20	11149	104.773197304712	4.4451962734072
20	11647	109.218393578119	1.9706154134411
20	11900	111.18900899156	2.1828072744843
20	12103	113.371816266044	0.91683195573873
20	12210	114.288648221783	1.893266652237
20	12431	116.18191487402	0.047469716149255
20	12442	116.229384590169	3.4343966153746
20	12828	119.663781205544	1.166218430232
20	12972	120.829999635776	0.27369175097033
20	12990	121.103691386746	0.52603644920883
20	13064	121.629727835955	0.17349747456845
20	13079	121.803225310523	1.5379001214805
20	13260	123.341125432003	2.1621382166954
20	13526	125.503263648698	0.09922853600279
20	13551	125.602492184701	3.8540115308554
20	13962	129.456503715556	0.72449823170501
20	14029	130.181001947261	0.47004410053438
20	14089	130.651046047795	0.87851430157575
20	14167	131.529560349371	0.37457130773903
20	14209	131.90413165711	0.53495748434557
20	14249	132.439089141456	0.1467316167463
20	14262	132.585820758202	3.0357375689906
20	14605	135.621558327193	2.9998303603308
20	14907	138.621388687524	3.7365289767593
20	15268	142.357917664283	0.74110869409922
20	15352	143.099026358382	1.7044633354488
20	15577	144.803489693831	0.68657236667569
20	15613	145.490062060507	0.71650055600238
20	15677	146.206562616509	0.60926711540601
20	15762	146.815829731915	0.086738520230042
20	15768	146.902568252145	1.0824249849098
20	15912	147.984993237055	5.2489611255509
20	16458	153.233954362606	0.23661679123813
20	16492	153.470571153844	0.92568606875521
20	16556	154.396257222599	4.3705455009842
20	16974	158.766802723583	1.082061461197
20	17112	159.84886418478	2.1414170756539
20	17340	161.990281260434	1.0237490863561
20	17453	163.01403034679	2.1793123027402
20	17695	165.19334264953	0.81229558546027
20	17802	166.00563823499	2.5936743491865
20	18055	168.599312584177	4.6410217748618
20	18491	173.240334359039	1.153767694859
20	18574	174.394102053898	0.88771439744873
20	18644	175.281816451347	4.7128210327671
20	19182	179.994637484114	0.62798038613162
20	19281	180.622617870246	4.6170792345487
20	19828	185.239697104795	0.89408946719257
20	19916	186.133786571988	2.2093206382316
20	20156	188.34310721022	0.68004281097902
20	20243	189.023150021199	11.436201471649
20	21459	200.459351492848	3.0232518366527
20	21798	203.482603329501	0.97974178014072
20	21911	204.462345109642	3.4396331581488
20	22321	207.901978267791	4.2360169100058
20	22769	212.137995177797	0.53861735464825
20	22840	212.676612532445	2.5885991805813
20	23165	215.265211713026	2.2527362405503
20	23345	217.517947953576	2.6908159495897
20	23664	220.208763903166	0.61807884676959
20	23711	220.826842749936	0.053738238731044
20	23718	220.880580988667	2.7629691953276
20	24035	223.643550183995	0.63607975232009
20	24080	224.279629936315	0.71396784481698
20	24182	224.993597781132	1.41825077809
20	24334	226.411848559222	0.70311394943607
20	24407	227.114962508658	1.8623054909416
20	24570	228.9772679996	12.796399473502
20	26111	241.773667473102	2.25782606824
20	26348	244.031493541342	5.4876327455407
20	26901	249.519126286883	15.709607377329
20	28658	265.228733664212	0.43594565649007
20	28681	265.664679320702	0.61736639222016
20	28757	266.282045712922	2.8547924854509
20	29057	269.136838198373	1.9815360122292
20	29277	271.118374210602	0.96724497918863
20	29362	272.085619189791	1.2311421126693
20	29495	273.31676130246	1.8719740175312
20	29687	275.188735319991	0.59621353079272
20	29729	275.784948850784	3.1348182035098
20	30071	278.919767054294	3.3308260137295
20	30506	282.250593068024	1.063687875081
20	30631	283.314280943105	1.8757814683966
20	30816	285.190062411502	1.3026131790746
20	30938	286.492675590577	0.58466876341303
20	30985	287.07734435399	3.2543197857973
20	31382	290.331664139787	0.77153629486651
20	31441	291.103200434654	0.20568008333752
20	31451	291.308880517992	3.5699746668567
20	31860	294.878855184849	1.1690852741461
20	32009	296.047940458995	1.0229234674317
20	32101	297.070863926427	0.42341200348479
20	32149	297.494275929912	0.59529026946645
20	32193	298.089566199378	0.15924654276757
20	32201	298.248812742146	0.55474795326255
20	32287	298.803560695409	2.3152712470354
20	32548	301.118831942444	1.5031492896055
20	32767	302.62198123205	2.2425145373833
20	32985	304.864495769433	0.094716635492297
20	32996	304.959212404925	3.2025965468278
20	33347	308.161808951753	1.5207644155608
20	33508	309.682573367314	0.73779387081397
20	33586	310.420367238128	0.14529767034751
20	33607	310.565664908476	1.3818053874847
20	33746	311.947470295961	3.4470140185762
20	34140	315.394484314537	7.7973560957515
20	34981	323.191840410288	0.34219724130786
20	35000	323.534037651596	0.13039702178312
20	35014	323.664434673379	7.3455835599768
20	35770	331.010018233356	3.1805683404382
20	36091	334.190586573794	3.3447244058344
20	36482	337.535310979628	1.6620219557222
20	36669	339.19733293535	2.5535804000864
20	36957	341.750913335436	3.8228035049406
20	37338	345.573716840377	4.1082138804558
20	37746	349.681930720833	2.0458860913756
20	37925	351.727816812209	1.2486145756735
20	38048	352.976431387882	2.2912298388222
20	38281	355.267661226704	0.19830180381635
20	38299	355.46596303052	0.38228100926788
20	38328	355.848244039788	2.9640581456269
20	38689	358.812302185415	1.1075118867777
20	38832	359.919814072193	0.99033032830459
20	38944	360.910144400498	3.5514031096452
20	39244	364.461547510143	1.6588802131051
20	39455	366.120427723248	0.45570498045107
20	39508	366.576132703699	0.12292460134609
20	39509	366.699057305045	1.3821019830544
20	39703	368.081159288099	0.91927924714492
20	39784	369.000438535244	0.44660876586726
20	39843	369.447047301111	0.52669502859535
20	39907	369.973742329706	0.84903438594463
20	40005	370.822776715651	3.7540901521496
20	40416	374.576866867801	0.9066051529632
20	40505	375.483472020764	0.28790773219326
20	40519	375.771379752957	6.4146708813246
20	41196	382.186050634282	0.29321628089494
20	41219	382.479266915177	4.5121770886775
20	41627	386.991444003854	0.69111023432448
20	41738	387.682554238178	2.0302144264196
20	42054	389.712768664598	0.80616716201869
20	42178	390.518935826617	1.2617175057952
20	42324	391.780653332412	0.1273985081644
20	42360	391.908051840576	1.0564613738224
20	42514	392.964513214398	1.0553821472744
20	42633	394.019895361672	0.26810185764174
20	42672	394.287997219314	0.36361973571958
20	42701	394.651616955034	0.22831414145269
20	42713	394.879931096487	0.30299875322002
20	42754	395.182929849707	8.171609485921
21	2192	20.636281530494	1.2952152741634
21	2340	21.931496804657	0.42707845444377
21	2390	22.358575259101	0.084076824985376
21	2406	22.442652084086	6.160433893721
21	2986	28.603085977807	0.3761954441952
21	3026	28.979281422002	2.9828625009251
21	3350	31.962143922927	0.35696928562505
21	3383	32.319113208552	7.3890859924779
21	4262	39.70819920103	6.3190966388065
21	4855	46.027295839836	8.3198815810289
21	5758	54.347177420865	4.0453878554772
21	6180	58.392565276342	0.15057839802904
21	6190	58.543143674371	0.74602333303177
21	6277	59.289167007403	0.015812365926684
21	6285	59.30497937333	0.93811883878214
21	6409	60.243098212112	0.23451500991086
21	6462	60.477613222023	1.4386059706432
21	6581	61.916219192666	1.239576009223
21	6700	63.155795201889	0.68216948223985
21	6770	63.837964684129	0.46606397806119
21	6815	64.30402866219	2.4015173894452
21	7098	66.705546051635	0.27135970978037
21	7109	66.976905761415	2.266522684214
21	7382	69.243428445629	2.7175939452509
21	7705	71.96102239088	3.4316019825146
21	8040	75.392624373395	0.25355800121913
21	8061	75.646182374614	5.1655602175121
21	8624	80.811742592126	0.43224667760809
21	8681	81.243989269734	1.3232184245017
21	8820	82.567207694236	3.7515572073673
21	9212	86.318764901603	0.52959158941845
21	9257	86.848356491021	0.66041450953422
21	9305	87.508771000555	0.34002003870345
21	9344	87.848791039258	5.1408670873581
21	9843	92.989658126616	0.17148965080148
21	9859	93.161147777417	4.2494821863038
21	10376	97.410629963721	2.3782680065129
21	10663	99.788897970234	7.3412065944462
21	11411	107.13010456468	0.032234924540388
21	11418	107.16233948922	2.2883567287097
21	11684	109.45069621793	2.8643249216448
21	12006	112.315021139575	0.51721927431136
21	12059	112.832240413886	1.9299401958662
21	12250	114.762180609752	2.5096655124095
21	12566	117.271846122161	0.43686471427798
21	12622	117.708710836439	0.50635720007782
21	12688	118.215068036517	0.61203979908235
21	12761	118.827107835599	5.0439029750177
21	13333	123.871010810617	0.91922646276977
21	13449	124.790237273387	0.054156570778114
21	13464	124.844393844165	1.4222360801149
21	13606	126.26662992428	0.15345006870493
21	13622	126.420079992985	0.2340430139403
21	13665	126.654123006925	3.8179265815517
21	14078	130.472049588477	4.7221342175982
21	14568	135.194183806075	1.2887272508643
21	14689	136.482911056939	0.79588671277076
21	14770	137.27879776971	0.98755914917996
21	14861	138.26635691889	0.43426910450047
21	14923	138.70062602339	0.25832867867885
21	14957	138.958954702069	0.33020796592397
21	14992	139.289162667993	0.079774428415239
21	14998	139.368937096408	7.3958842248385
21	15758	146.764821321247	0.98379436177666
21	15868	147.748615683024	2.1394004464734
21	16101	149.888016129497	0.28001205861105
21	16120	150.168028188108	1.366083447812
21	16280	151.53411163592	2.2933637265743
21	16518	153.827475362494	0.56795047089498
21	16555	154.395425833389	2.0570600187867
21	16768	156.452485852176	1.1464567734275
21	16859	157.598942625603	0.0057908496976886
21	16860	157.604733475301	1.0831166783036
21	16971	158.687850153605	0.56501591179055
21	17027	159.252866065396	2.6534027053995
21	17322	161.906268770795	3.9735715838031
21	17790	165.879840354598	0.40880971491375
21	17838	166.288650069512	2.2012609358574
21	18051	168.489911005369	2.6843304788659
21	18329	171.174241484235	4.5612262773057
21	18680	175.735467761541	0.44869019897994
21	18738	176.184157960521	0.27905180413894
21	18759	176.46320976466	0.9344368389641
21	18869	177.397646603624	3.4537321129549
21	19306	180.851378716579	1.9901466319989
21	19527	182.841525348578	3.4272869410505
21	19945	186.268812289629	0.87977411761179
21	20033	187.148586407241	6.4181856554264
21	20686	193.566772062667	0.47877971134169
21	20775	194.045551774009	2.038410146791
21	20978	196.0839619208	4.8210264354426
21	21497	200.904988356243	1.2602678039078
21	21655	202.165256160151	0.3317754106711
21	21697	202.497031570822	0.81286419993317
21	21766	203.309895770755	2.1086481495898
21	22012	205.418543920345	1.1349460047776
21	22119	206.553489925123	0.23568802048766
21	22155	206.789177945611	3.1367293498442
21	22537	209.925907295455	2.9328421966839
21	22852	212.858749492139	0.022378549289876
21	22853	212.881128041429	0.16796462201995
21	22875	213.049092663449	3.8207718106818
21	23294	216.869864474131	1.4868022574039
21	23467	218.356666731535	0.30347080076082
21	23492	218.660137532296	0.11028791786428
21	23515	218.77042545016	0.10434095076231
21	23533	218.874766400922	0.096589745961874
21	23539	218.971356146884	2.3909676009183
21	23769	221.362323747802	2.3343264234107
21	24036	223.696650171213	0.0661764014527
21	24038	223.762826572666	0.22906049831424
21	24052	223.99188707098	3.3302843331185
21	24448	227.322171404099	0.34853054568786
21	24490	227.670701949787	0.16935328332081
21	24512	227.840055233108	3.9314404375004
21	24903	231.771495670608	0.13753952722462
21	24919	231.909035197833	1.60194488182
21	25128	233.510980079653	0.51183144121592
21	25193	234.022811520869	0.31288647411637
21	25250	234.335697994985	0.61942793053566
21	25323	234.955125925521	2.7371544899695
21	25635	237.69228041549	4.2831255796934
21	26152	241.975405995183	0.45584423307139
21	26188	242.431250228254	2.5495700438485
21	26448	244.980820272103	2.8518711738878
21	26732	247.832691445991	0.1774472280751
21	26761	248.010138674066	1.3870964325743
21	26886	249.39723510664	4.0559825148849
21	27270	253.453217621525	2.6386679055134
21	27511	256.091885527038	0.086499055637805
21	27532	256.178384582676	4.5208059572299
21	28062	260.699190539906	1.516017736412
21	28317	262.215208276318	2.5738596755496
21	28588	264.789067951868	6.2486094008811
21	29270	271.037677352749	1.4423295069319
21	29418	272.480006859681	1.0408349859012
21	29503	273.520841845582	2.1485676710623
21	29722	275.669409516644	0.86368021952144
21	29819	276.533089736165	0.93231571659033
21	29930	277.465405452755	0.74531119788405
21	30015	278.210716650639	0.65043659412752
21	30070	278.861153244767	6.3715847701443
21	30821	285.232738014911	3.0203582983089
21	31144	288.25309631322	0.1120876444334
21	31175	288.365183957653	0.27004339710325
21	31189	288.635227354756	1.2326697859626
21	31339	289.867897140719	2.8570320870683
21	31631	292.724929227787	2.3822859555773
21	31889	295.107215183364	0.048082312793972
21	31892	295.155297496158	2.7872940094808
21	32190	297.942591505639	0.92891023320719
21	32298	298.871501738846	0.17387112127793
21	32307	299.045372860124	2.3140052134137
21	32577	301.359378073538	2.2313225266141
21	32857	303.590700600152	1.5509098810127
21	33027	305.141610481165	2.1799367310216
21	33239	307.321547212187	1.7057427102708
21	33461	309.027289922458	0.37527658132898
21	33473	309.402566503787	0.34718353373024
21	33526	309.749750037517	2.8290752981386
21	33829	312.578825335656	0.68156505828955
21	33890	313.260390393946	0.63788729547266
21	33966	313.898277689419	3.8078618365227
21	34421	317.706139525942	4.4864816064039
21	34871	322.192621132346	2.0598487027841
21	35053	324.25246983513	0.45383848571768
21	35093	324.706308320848	0.15162103533256
21	35094	324.857929356181	0.15921578244991
21	35121	325.017145138631	1.419853840397
21	35230	326.436998979028	1.5712560249196
21	35412	328.008255003948	5.5734580871942
21	36034	333.581713091142	0.59073156813028
21	36087	334.172444659272	2.1465001060293
21	36321	336.318944765301	1.1198383910474
21	36470	337.438783156348	1.0908928154011
21	36585	338.529675971749	1.5857222552857
21	36771	340.115398227035	1.1939901958742
21	36906	341.309388422909	2.4891488368146
21	37174	343.798537259724	0.43689632278152
21	37228	344.235433582506	2.2914283711188
21	37398	346.526861953625	1.6962618597864
21	37566	348.223123813411	4.8835049272574
21	38056	353.106628740668	0.22171668848572
21	38067	353.328345429154	2.0737452723226
21	38293	355.402090701477	0.93770196905045
21	38384	356.339792670527	0.36854145011378
21	38436	356.708334120641	1.0706494204913
21	38599	357.778983541132	2.975137043952
21	38921	360.754120585084	1.5900565491126
21	39076	362.344177134197	0.55787840660615
21	39106	362.902055540803	0.31618369627746
21	39150	363.21823923708	0.5699531798294
21	39208	363.788192416909	0.14627916118127
21	39219	363.93447157809	0.18607735389635
21	39222	364.120548931986	0.85270887550802
21	39302	364.973257807494	0.71398053738321
21	39416	365.687238344877	0.41656517932606
21	39449	366.103803524203	9.5613640598336
21	40517	375.665167584037	3.8439877915427
21	40934	379.50915537558	1.2181814444853
21	41074	380.727336820065	1.6192903748687
21	41208	382.346627194934	3.4913632208114
21	41506	385.837990415745	0.002954279248296
21	41507	385.840944694993	2.1440468591042
21	41759	387.984991554097	1.5146381791546
21	42013	389.499629733252	0.90437466231341
21	42164	390.404004395565	0.10814101810266
21	42177	390.512145413668	0.34152023837413
21	42235	390.853665652042	6.0917293788966
21	42928	396.945395030939	3.2709858325107

