file 6611744 1614185335                                         
version 2
run Nonmonitoring-exponential-208-20210224-17:48:54-26779
attr configname Nonmonitoring-exponential
attr datetime 20210224-17:48:54
attr experiment Nonmonitoring-exponential
attr inifile aerocom.ini
attr iterationvars $0=13
attr iterationvarsf 13-
attr measurement $0=13
attr network Aerocom
attr processid 26779
attr repetition 8
attr replication #8
attr resultdir results
attr runnumber 208
attr seedset 8
param **.t 2s
param **.k 13ms
param **.X 0.05s
param **.m 1s
param **.tDistribution "\"exponential\""
param **.operationMode 1
param **.s "70 byte"
param **.dimPoolMax 10000
param **.dimPoolMin 8000
param **.nDL 16
param **.nA 1
param **.DLMaxCapacity 0
param **.trasmitting false

vector 0 Aerocom.aircraft[0].linkSelector responseTime:vector ETV
attr "" ""
attr source computeResponseTime
vector 1 Aerocom.aircraft[0].packetGenerator arrivalTime:vector ETV
attr "" ""
attr source computeArrivalTime
vector 2 Aerocom.aircraft[0].linkSelector waitingTime:vector ETV
attr "" ""
attr source computeWaitingTime
vector 3 Aerocom.aircraft[0].linkSelector queueLength:vector ETV
attr "" ""
attr source computeQueueLength
vector 4 Aerocom.aircraft[0].dataLink[0] actualCapacity:vector ETV
attr "" ""
attr source computeActualCapacity
vector 5 Aerocom.aircraft[0].linkSelector serviceTime:vector ETV
attr "" ""
attr source computeServiceTime
vector 6 Aerocom.aircraft[0].dataLink[9] tDistribution:vector ETV
attr "" ""
attr source computeTDistribution
vector 7 Aerocom.aircraft[0].dataLink[15] tDistribution:vector ETV
attr "" ""
attr source computeTDistribution
vector 8 Aerocom.aircraft[0].dataLink[1] tDistribution:vector ETV
attr "" ""
attr source computeTDistribution
vector 9 Aerocom.aircraft[0].dataLink[7] tDistribution:vector ETV
attr "" ""
attr source computeTDistribution
vector 10 Aerocom.aircraft[0].dataLink[13] tDistribution:vector ETV
attr "" ""
attr source computeTDistribution
vector 11 Aerocom.aircraft[0].dataLink[2] tDistribution:vector ETV
attr "" ""
attr source computeTDistribution
vector 12 Aerocom.aircraft[0].dataLink[14] tDistribution:vector ETV
attr "" ""
attr source computeTDistribution
vector 13 Aerocom.aircraft[0].dataLink[11] tDistribution:vector ETV
attr "" ""
attr source computeTDistribution
vector 14 Aerocom.aircraft[0].dataLink[12] tDistribution:vector ETV
attr "" ""
attr source computeTDistribution
vector 15 Aerocom.aircraft[0].dataLink[0] tDistribution:vector ETV
attr "" ""
attr source computeTDistribution
vector 16 Aerocom.aircraft[0].dataLink[5] tDistribution:vector ETV
attr "" ""
attr source computeTDistribution
vector 17 Aerocom.aircraft[0].dataLink[10] tDistribution:vector ETV
attr "" ""
attr source computeTDistribution
vector 18 Aerocom.aircraft[0].dataLink[6] tDistribution:vector ETV
attr "" ""
attr source computeTDistribution
vector 19 Aerocom.aircraft[0].dataLink[8] tDistribution:vector ETV
attr "" ""
attr source computeTDistribution
vector 20 Aerocom.aircraft[0].dataLink[3] tDistribution:vector ETV
attr "" ""
attr source computeTDistribution
vector 21 Aerocom.aircraft[0].dataLink[4] tDistribution:vector ETV
attr "" ""
attr source computeTDistribution
0	3130 1199387 3633 157120 10.000621737744 399.991209418178 30080 0.007015433955 0.083776835208 417.34830880495 7.9118131184522
1	1202517 1199300 3636 157115 10.003573956587 399.981293767274 30079 3.83586e-07 0.15743128586 390.00112686304 10.126790757195
2	2401817 1047087 3637 157117 10.003573956587 399.983564993148 30079 0 0.075624977749 182.31417083467 3.1964237125937
3	3448904 811723 3637 157117 10.003573956587 399.983564993148 30079 0 9 14115 32913
4	4260627 901960 3637 157117 10.003573956587 399.983564993148 30079 8017 9990 270220157 2434258660997
5	5162587 1319144 3637 157117 10.003573956587 399.983564993148 30079 0.007007007007007 0.0087314456779344 235.0194054289 1.841361907275
6	6481731 7832 3668 156484 10.075409950654 398.42364435373 190 0.0078446133001186 11.319194292811 393.45716134458 1566.8468990977
7	6489563 7352 3672 156820 10.095665880154 399.283336586055 178 0.019405904890573 13.266950363132 396.25352929529 1839.5269143198
8	6496915 7649 3703 156931 10.264673813091 399.563445666262 185 0.0032097968802019 14.496978703057 391.01234201199 1744.9199056651
9	6504564 8049 3830 156385 10.49318455269 398.162582699418 195 0.0062292291547219 11.7261319408 390.18499374546 1510.7132392685
10	6512613 7733 3851 156740 10.56178516231 399.086669764424 183 0.0088450509151058 13.06706931286 391.99587010078 1745.9193343828
11	6520346 7601 3872 156270 10.634057219738 397.841877839555 180 0.0008506441592696 12.491150096207 390.67333051763 1738.3654265323
12	6527947 9479 3923 156196 10.756807889138 397.653306883843 224 0.010114150731874 13.217882404498 389.56880922405 1404.0762479664
13	6537426 8583 4020 156394 10.959676541413 398.174138565252 203 0.0025265923530878 10.626052908186 392.51016319684 1525.5449298853
14	6546009 9307 4150 156547 11.274432352546 398.636493680551 220 0.006217471932323 10.237472488019 389.16607193496 1210.2812404646
15	6555316 8444 4189 156956 11.37074618303 399.64732512419 199 0.0026753684470425 11.432505329211 389.07344121675 1442.1309880191
16	6563760 8412 4556 157101 12.316470921681 399.929897872274 199 0.0011844411622768 11.288806386195 391.49178612901 1409.514517355
17	6572172 7752 4691 156932 12.677146897532 399.563935466918 183 0.0078752398273018 11.94781211367 387.53750559086 1567.5148814015
18	6579924 8320 5206 157090 14.030343813672 399.89221867022 197 0.0077792156032708 11.064858889696 387.03019816002 1477.2795468839
19	6588244 7473 5226 157111 14.063575130962 399.97286146615 177 0.0092617126260935 13.280765520661 386.25084728809 1771.2746386339
20	6595717 8246 5668 156319 15.001723252362 397.963163672176 195 0.011524303744294 11.67638854094 385.61031462937 1498.1485889101
21	6603963 7780 6505 156945 16.96796139798 399.628351478661 184 0.0099656481412919 9.1492380078374 384.65491817593 1484.7768391792

