file 8652958 1614185329                                         
version 2
run Nonmonitoring-exponential-147-20210224-17:48:48-26741
attr configname Nonmonitoring-exponential
attr datetime 20210224-17:48:48
attr experiment Nonmonitoring-exponential
attr inifile aerocom.ini
attr iterationvars $0=10
attr iterationvarsf 10-
attr measurement $0=10
attr network Aerocom
attr processid 26741
attr repetition 47
attr replication #47
attr resultdir results
attr runnumber 147
attr seedset 47
param **.t 2s
param **.k 10ms
param **.X 0.05s
param **.m 1s
param **.tDistribution "\"exponential\""
param **.operationMode 1
param **.s "70 byte"
param **.dimPoolMax 10000
param **.dimPoolMin 8000
param **.nDL 16
param **.nA 1
param **.DLMaxCapacity 0
param **.trasmitting false

vector 0 Aerocom.aircraft[0].linkSelector responseTime:vector ETV
attr "" ""
attr source computeResponseTime
vector 1 Aerocom.aircraft[0].linkSelector waitingTime:vector ETV
attr "" ""
attr source computeWaitingTime
vector 2 Aerocom.aircraft[0].linkSelector queueLength:vector ETV
attr "" ""
attr source computeQueueLength
vector 3 Aerocom.aircraft[0].dataLink[6] actualCapacity:vector ETV
attr "" ""
attr source computeActualCapacity
vector 4 Aerocom.aircraft[0].linkSelector serviceTime:vector ETV
attr "" ""
attr source computeServiceTime
vector 5 Aerocom.aircraft[0].packetGenerator arrivalTime:vector ETV
attr "" ""
attr source computeArrivalTime
vector 6 Aerocom.aircraft[0].dataLink[8] tDistribution:vector ETV
attr "" ""
attr source computeTDistribution
vector 7 Aerocom.aircraft[0].dataLink[4] tDistribution:vector ETV
attr "" ""
attr source computeTDistribution
vector 8 Aerocom.aircraft[0].dataLink[2] tDistribution:vector ETV
attr "" ""
attr source computeTDistribution
vector 9 Aerocom.aircraft[0].dataLink[7] tDistribution:vector ETV
attr "" ""
attr source computeTDistribution
vector 10 Aerocom.aircraft[0].dataLink[6] tDistribution:vector ETV
attr "" ""
attr source computeTDistribution
vector 11 Aerocom.aircraft[0].dataLink[12] tDistribution:vector ETV
attr "" ""
attr source computeTDistribution
vector 12 Aerocom.aircraft[0].dataLink[10] tDistribution:vector ETV
attr "" ""
attr source computeTDistribution
vector 13 Aerocom.aircraft[0].dataLink[1] tDistribution:vector ETV
attr "" ""
attr source computeTDistribution
vector 14 Aerocom.aircraft[0].dataLink[3] tDistribution:vector ETV
attr "" ""
attr source computeTDistribution
vector 15 Aerocom.aircraft[0].dataLink[15] tDistribution:vector ETV
attr "" ""
attr source computeTDistribution
vector 16 Aerocom.aircraft[0].dataLink[0] tDistribution:vector ETV
attr "" ""
attr source computeTDistribution
vector 17 Aerocom.aircraft[0].dataLink[9] tDistribution:vector ETV
attr "" ""
attr source computeTDistribution
vector 18 Aerocom.aircraft[0].dataLink[11] tDistribution:vector ETV
attr "" ""
attr source computeTDistribution
vector 19 Aerocom.aircraft[0].dataLink[14] tDistribution:vector ETV
attr "" ""
attr source computeTDistribution
vector 20 Aerocom.aircraft[0].dataLink[5] tDistribution:vector ETV
attr "" ""
attr source computeTDistribution
vector 21 Aerocom.aircraft[0].dataLink[13] tDistribution:vector ETV
attr "" ""
attr source computeTDistribution
0	3133 1307569 4963 171419 10.005064665904 337.424820294272 32768 0.007012622721 0.121869843666 689.87849494054 22.572926332327
1	1310702 1212486 4963 171419 10.005064665904 337.424820294272 32768 0 0.113935134983 437.71651584661 13.8080380145
2	2523188 885390 4963 171419 10.005064665904 337.424820294272 32768 0 14 43617 176187
3	3408578 983526 4963 171419 10.005064665904 337.424820294272 32768 8000 9995 298829377 2731897486777
4	4392104 1437904 4963 171419 10.005064665904 337.424820294272 32768 0.0070035017508754 0.00875 252.15455469906 1.9453527336959
5	5830008 1307335 4966 171422 10.006296483493 337.426853694279 32768 1.45089e-07 0.105213663105 327.42758986108 6.581858786465
0	7137343 253578 171424 202973 337.433049779341 399.991471213994 6218 0.00701754386 0.086305787652 124.00463196441 3.6001861270046
1	7390921 234431 171424 202973 337.433049779341 399.991471213994 6218 0 0.079241502659 75.720675708052 2.0449834711284
2	7625352 173429 171424 202973 337.433049779341 399.991471213994 6218 0 11 7386 25778
3	7798781 192079 171424 202973 337.433049779341 399.991471213994 6218 8110 9975 56177795 508770648721
4	7990860 278319 171424 202973 337.433049779341 399.991471213994 6218 0.0070175438596491 0.0086313193588163 48.291787970242 0.37594812392773
5	8269179 253453 171427 202976 337.433886344574 399.995184892313 6218 1.70352e-06 0.098788815972 62.586507834811 1.240936497642
6	8522632 6937 5039 202689 10.230617560372 399.412167311654 167 0.0022079909234262 12.298333691026 391.17307567069 1742.7274793507
7	8529569 8168 5125 201943 10.385346002847 397.999450272606 197 0.0010126570493052 11.625993052732 390.34016312499 1512.8573820597
8	8537737 7394 5197 202168 10.505552829258 398.417637239066 178 0.016588148381446 12.943605316827 390.90536367916 1702.6097038778
9	8545131 7714 5284 202809 10.641583412237 399.612154448254 186 0.019161147507635 8.3487283797862 390.05765062708 1591.8083772954
10	8552845 7666 5470 202978 10.922281423262 399.998473835034 181 0.048231560566892 10.258664806017 391.63213817943 1431.737751401
11	8560511 8004 5751 202864 11.415493972211 399.778649818397 189 0.00069666119896484 11.880356398959 390.70656145151 1520.3834048873
12	8568515 8842 5908 198735 11.713556868068 391.767262596859 208 0.022790081365912 17.724733746426 397.77843947521 1739.9577048279
13	8577357 9015 6144 202127 12.109405386702 398.318739627251 213 0.016842797783511 9.4409707296283 390.83190633985 1339.4754706174
14	8586372 7850 6220 201973 12.324411120762 398.038063281537 185 0.0025803843305727 14.244378169346 389.3384981169 1706.6115139299
15	8594222 8328 6234 201185 12.355095494618 396.452401136369 196 0.021490176289442 10.473715920623 390.64399369828 1501.818295524
16	8602550 8277 6250 201874 12.399283782541 397.841489491267 195 0.01467514230878 11.04669377576 389.34759177784 1449.559986361
17	8610827 8748 6274 202850 12.445505777628 399.708980162462 206 0.00061443758477649 14.089299414584 388.15544756002 1527.5313883413
18	8619575 8474 6512 202674 12.943128495509 399.388557181948 199 0.0088887916553202 10.285222586936 389.98181268582 1473.875902254
19	8628049 8408 6759 201374 13.343578397503 396.827884520395 198 0.007089681550288 8.8907921171637 391.37812309529 1415.8824715419
20	8636457 8172 7094 200683 13.966985497975 395.392408350706 192 0.024298655337284 11.766877026921 386.04418390264 1669.5427733839
21	8644629 8328 9301 202965 18.418128247528 399.97833482584 196 0.015485563524028 11.037024578002 384.02455743309 1519.0572800127

