version 2
run Nonmonitoring-exponential-563-20210224-17:49:32-27085
attr configname Nonmonitoring-exponential
attr datetime 20210224-17:49:32
attr experiment Nonmonitoring-exponential
attr inifile aerocom.ini
attr iterationvars $0=50
attr iterationvarsf 50-
attr measurement $0=50
attr network Aerocom
attr processid 27085
attr repetition 63
attr replication #63
attr resultdir results
attr runnumber 563
attr seedset 63
param **.t 2s
param **.k 50ms
param **.X 0.05s
param **.m 1s
param **.tDistribution "\"exponential\""
param **.operationMode 1
param **.s "70 byte"
param **.dimPoolMax 10000
param **.dimPoolMin 8000
param **.nDL 16
param **.nA 1
param **.DLMaxCapacity 0
param **.trasmitting false

vector 0 Aerocom.aircraft[0].packetGenerator arrivalTime:vector ETV
attr "" ""
attr source computeArrivalTime
vector 1 Aerocom.aircraft[0].linkSelector waitingTime:vector ETV
attr "" ""
attr source computeWaitingTime
vector 2 Aerocom.aircraft[0].linkSelector queueLength:vector ETV
attr "" ""
attr source computeQueueLength
vector 3 Aerocom.aircraft[0].dataLink[6] actualCapacity:vector ETV
attr "" ""
attr source computeActualCapacity
vector 4 Aerocom.aircraft[0].linkSelector serviceTime:vector ETV
attr "" ""
attr source computeServiceTime
vector 5 Aerocom.aircraft[0].linkSelector responseTime:vector ETV
attr "" ""
attr source computeResponseTime
vector 6 Aerocom.aircraft[0].dataLink[13] tDistribution:vector ETV
attr "" ""
attr source computeTDistribution
vector 7 Aerocom.aircraft[0].dataLink[6] tDistribution:vector ETV
attr "" ""
attr source computeTDistribution
vector 8 Aerocom.aircraft[0].dataLink[4] tDistribution:vector ETV
attr "" ""
attr source computeTDistribution
vector 9 Aerocom.aircraft[0].dataLink[12] tDistribution:vector ETV
attr "" ""
attr source computeTDistribution
vector 10 Aerocom.aircraft[0].dataLink[15] tDistribution:vector ETV
attr "" ""
attr source computeTDistribution
vector 11 Aerocom.aircraft[0].dataLink[11] tDistribution:vector ETV
attr "" ""
attr source computeTDistribution
vector 12 Aerocom.aircraft[0].dataLink[0] tDistribution:vector ETV
attr "" ""
attr source computeTDistribution
vector 13 Aerocom.aircraft[0].dataLink[3] tDistribution:vector ETV
attr "" ""
attr source computeTDistribution
vector 14 Aerocom.aircraft[0].dataLink[14] tDistribution:vector ETV
attr "" ""
attr source computeTDistribution
vector 15 Aerocom.aircraft[0].dataLink[7] tDistribution:vector ETV
attr "" ""
attr source computeTDistribution
vector 16 Aerocom.aircraft[0].dataLink[5] tDistribution:vector ETV
attr "" ""
attr source computeTDistribution
vector 17 Aerocom.aircraft[0].dataLink[9] tDistribution:vector ETV
attr "" ""
attr source computeTDistribution
vector 18 Aerocom.aircraft[0].dataLink[8] tDistribution:vector ETV
attr "" ""
attr source computeTDistribution
vector 19 Aerocom.aircraft[0].dataLink[10] tDistribution:vector ETV
attr "" ""
attr source computeTDistribution
vector 20 Aerocom.aircraft[0].dataLink[1] tDistribution:vector ETV
attr "" ""
attr source computeTDistribution
vector 21 Aerocom.aircraft[0].dataLink[2] tDistribution:vector ETV
attr "" ""
attr source computeTDistribution
0	1101	10.013109951773	0.056963796897
0	1106	10.07007374867	0.064902672605
0	1111	10.134976421275	0.004640277285
0	1113	10.13961669856	0.020002806512
0	1121	10.159619505072	0.043050338243
0	1126	10.202669843315	0.013115208428
0	1131	10.215785051743	0.063231439089
0	1136	10.279016490832	0.024794297277
0	1141	10.303810788109	0.02401832077
0	1146	10.327829108879	0.014336485275
0	1152	10.342165594154	0.026198912359
0	1157	10.368364506513	0.053178237963
0	1162	10.421542744476	0.024495698509
0	1167	10.446038442985	0.071239223848
0	1172	10.517277666833	0.013399963828
0	1177	10.530677630661	0.041332589888
0	1182	10.572010220549	0.026988935548
0	1188	10.598999156097	0.006616282459
0	1191	10.605615438556	0.098875498134
0	1204	10.70449093669	0.028766042588
0	1210	10.733256979278	0.141173022132
0	1217	10.87443000141	0.029133899922
0	1223	10.903563901332	0.038300181214
0	1229	10.941864082546	0.000338412835
0	1231	10.942202495381	0.055479813708
0	1239	10.997682309089	0.034812982589
0	1244	11.032495291678	0.009489658534
0	1249	11.041984950212	0.068462126572
0	1255	11.110447076784	0.064212982776
0	1261	11.17466005956	0.028802818269
0	1266	11.203462877829	0.006570484403
0	1268	11.210033362232	0.07568873262
0	1276	11.285722094852	0.052079373
0	1281	11.337801467852	0.112250208884
0	1287	11.450051676736	0.008199042188
0	1292	11.458250718924	0.016305682522
0	1297	11.474556401446	0.000628215039
0	1299	11.475184616485	0.012074087433
0	1304	11.487258703918	0.08886689078
0	1312	11.576125594698	0.003048521704
0	1314	11.579174116402	0.032627922087
0	1323	11.611802038489	2.0858339e-05
0	1325	11.611822896828	0.002540250511
0	1327	11.614363147339	0.014234677156
0	1335	11.628597824495	0.018688148856
0	1343	11.647285973351	0.017911635002
0	1348	11.665197608353	0.025865087821
0	1353	11.691062696174	0.013499051454
0	1358	11.704561747628	0.041550532377
0	1363	11.746112280005	0.07590757969
0	1369	11.822019859695	0.007159478795
0	1371	11.82917933849	0.011150962171
0	1379	11.840330300661	0.011149462776
0	1384	11.851479763437	0.018844566025
0	1389	11.870324329462	0.075282944338
0	1394	11.9456072738	0.003905218232
0	1396	11.949512492032	0.034658868888
0	1404	11.98417136092	0.041627587942
0	1410	12.025798948862	0.028297340351
0	1415	12.054096289213	0.00076570353
0	1417	12.054861992743	0.112275045065
0	1426	12.167137037808	0.037801548419
0	1432	12.204938586227	0.021926474996
0	1437	12.226865061223	0.098022302916
0	1442	12.324887364139	0.017900233701
0	1447	12.34278759784	0.10542175852
0	1452	12.44820935636	0.062887582677
0	1459	12.511096939037	0.068325093099
0	1464	12.579422032136	0.051647792333
0	1470	12.631069824469	0.023858651653
0	1475	12.654928476122	0.026085622756
0	1481	12.681014098878	0.06782418564
0	1486	12.748838284518	0.134061517233
0	1491	12.882899801751	0.05426133088
0	1496	12.937161132631	0.084697645013
0	1501	13.021858777644	0.014199964655
0	1506	13.036058742299	0.003393936184
0	1508	13.039452678483	0.044433868501
0	1518	13.083886546984	0.027530676276
0	1523	13.11141722326	0.010958269044
0	1528	13.122375492304	0.148598008135
0	1537	13.270973500439	0.054630010917
0	1542	13.325603511356	0.003813170448
0	1544	13.329416681804	0.010038060212
0	1549	13.339454742016	0.10327525637
0	1557	13.442729998386	0.007318758845
0	1559	13.450048757231	0.048807903654
0	1568	13.498856660885	0.114481793842
0	1573	13.613338454727	0.025922923498
0	1578	13.639261378225	0.014863329078
0	1583	13.654124707303	0.013712153042
0	1588	13.667836860345	0.011720526641
0	1593	13.679557386986	0.092562083225
0	1600	13.772119470211	0.011684094193
0	1605	13.783803564404	0.060434095988
0	1610	13.844237660392	0.014094191257
0	1615	13.858331851649	0.05153842109
0	1621	13.909870272739	0.003251337037
0	1623	13.913121609776	0.059477852523
0	1631	13.972599462299	0.114930480619
0	1638	14.087529942918	0.023880836085
0	1643	14.111410779003	0.065723366776
0	1648	14.177134145779	0.021164424768
0	1653	14.198298570547	0.03582315942
0	1658	14.234121729967	0.016218993098
0	1663	14.250340723065	0.032113233639
0	1668	14.282453956704	0.096170431765
0	1674	14.378624388469	0.015629646125
0	1679	14.394254034594	0.027536519835
0	1684	14.421790554429	0.017171325509
0	1689	14.438961879938	0.0058777829
0	1691	14.444839662838	0.037457219185
0	1699	14.482296882023	0.047298868693
0	1704	14.529595750716	0.01383180942
0	1709	14.543427560136	0.185452111352
0	1714	14.728879671488	0.025160441814
0	1720	14.754040113302	0.015047257846
0	1725	14.769087371148	0.002915570806
0	1727	14.772002941954	0.024426817053
0	1735	14.796429759007	0.089282681939
0	1741	14.885712440946	0.022382336294
0	1746	14.90809477724	0.014444932411
0	1751	14.922539709651	0.027285899855
0	1757	14.949825609506	0.031956741704
0	1764	14.98178235121	0.037436487869
0	1769	15.019218839079	0.011368512578
0	1774	15.030587351657	0.065352928208
0	1781	15.095940279865	0.009717012695
0	1786	15.10565729256	0.039177809311
0	1791	15.144835101871	0.0025837811
0	1793	15.147418882971	0.111175665742
0	1802	15.258594548713	0.015035606855
0	1807	15.273630155568	0.069195171047
0	1812	15.342825326615	0.038592449416
0	1818	15.381417776031	0.019196838795
0	1823	15.400614614826	0.006625309166
0	1825	15.407239923992	0.062607468153
0	1834	15.469847392145	0.00190414707
0	1836	15.471751539215	0.113048114367
0	1846	15.584799653582	0.003018296263
0	1848	15.587817949845	0.022529026423
0	1856	15.610346976268	0.118333900612
0	1861	15.72868087688	0.052805686857
0	1866	15.781486563737	0.021943923241
0	1871	15.803430486978	0.00861039848
0	1876	15.812040885458	0.141202878425
0	1882	15.953243763883	0.04750994433
0	1887	16.000753708213	0.030410955733
0	1892	16.031164663946	0.024817075656
0	1897	16.055981739602	0.006672196079
0	1899	16.062653935681	0.075565917442
0	1907	16.138219853123	0.040663216491
0	1912	16.178883069614	0.135520825172
0	1919	16.314403894786	0.031684432866
0	1924	16.346088327652	0.037450161028
0	1929	16.38353848868	0.125072635505
0	1935	16.508611124185	0.081103146585
0	1940	16.58971427077	0.018192820095
0	1945	16.607907090865	0.002553261708
0	1947	16.610460352573	0.080841980881
0	1955	16.691302333454	0.013728984645
0	1961	16.705031318099	0.081902937175
0	1966	16.786934255274	0.132356121872
0	1973	16.919290377146	0.059761921186
0	1978	16.979052298332	0.005604626181
0	1980	16.984656924513	0.045967608861
0	1988	17.030624533374	0.03195696741
0	1993	17.062581500784	0.031856616752
0	1998	17.094438117536	0.073585794371
0	2003	17.168023911907	0.009544071497
0	2008	17.177567983404	0.044096700413
0	2013	17.221664683817	0.007912876434
0	2015	17.229577560251	0.044525322937
0	2023	17.274102883188	0.044031591169
0	2028	17.318134474357	0.003185190092
0	2030	17.321319664449	0.040667850653
0	2038	17.361987515102	0.018062926005
0	2043	17.380050441107	0.157180339611
0	2049	17.537230780718	0.015448937763
0	2056	17.552679718481	0.024632057647
0	2061	17.577311776128	0.039265171505
0	2066	17.616576947633	0.010969324121
0	2071	17.627546271754	0.044141573406
0	2076	17.67168784516	0.033323605522
0	2082	17.705011450682	0.047115920812
0	2087	17.752127371494	0.070614333436
0	2093	17.82274170493	0.030664059718
0	2098	17.853405764648	0.026637829221
0	2103	17.880043593869	0.002362968333
0	2105	17.882406562202	0.022084808063
0	2114	17.904491370265	0.007299043675
0	2116	17.91179041394	0.014393362369
0	2124	17.926183776309	0.053955032123
0	2130	17.980138808432	0.117513406188
0	2137	18.09765221462	0.020041147099
0	2142	18.117693361719	0.005907424678
0	2144	18.123600786397	0.055967470656
0	2152	18.179568257053	0.039267316489
0	2158	18.218835573542	0.015126441834
0	2163	18.233962015376	0.007515786464
0	2165	18.24147780184	0.005676527885
0	2170	18.247154329725	0.089730331445
0	2178	18.33688466117	0.003395732245
0	2180	18.340280393415	0.03077128813
0	2188	18.371051681545	0.009591897119
0	2193	18.380643578664	0.027698428792
0	2199	18.408342007456	0.096202656971
0	2204	18.504544664427	0.020806857013
0	2210	18.52535152144	0.092061245015
0	2215	18.617412766455	0.022494238872
0	2222	18.639907005327	0.043395611893
0	2227	18.68330261722	0.038384637889
0	2232	18.721687255109	0.003275334957
0	2234	18.724962590066	0.21009977187
0	2243	18.935062361936	0.027668435999
0	2248	18.962730797935	0.000219804592
0	2251	18.962950602527	0.014060498817
0	2256	18.977011101344	0.05211064638
0	2264	19.029121747724	0.005033821879
0	2266	19.034155569603	0.087252679202
0	2275	19.121408248805	0.004112949991
0	2277	19.125521198796	0.076718837669
0	2285	19.202240036465	0.022266985926
0	2291	19.224507022391	0.089685488885
0	2297	19.314192511276	0.022016356982
0	2304	19.336208868258	0.088031196134
0	2309	19.424240064392	0.056978847789
0	2315	19.481218912181	0.095240180617
0	2320	19.576459092798	0.02952672738
0	2325	19.605985820178	0.056542542642
0	2330	19.66252836282	0.027143184677
0	2335	19.689671547497	0.046816538547
0	2341	19.736488086044	0.008725277173
0	2346	19.745213363217	0.016262364776
0	2351	19.761475727993	0.004707510881
0	2353	19.766183238874	0.036202405927
0	2362	19.802385644801	0.003546863507
0	2364	19.805932508308	0.098596002316
0	2372	19.904528510624	0.029730632373
0	2378	19.934259142997	0.062608798016
0	2384	19.996867941013	0.085723041334
0	2389	20.082590982347	0.123773104532
0	2395	20.206364086879	0.004972729755
0	2397	20.211336816634	0.008970118135
0	2402	20.220306934769	0.009152786185
0	2411	20.229459720954	0.049507353616
0	2416	20.27896707457	0.161074448494
0	2421	20.440041523064	0.117377610848
0	2428	20.557419133912	0.032477063023
0	2433	20.589896196935	0.022487123494
0	2438	20.612383320429	0.005912623812
0	2440	20.618295944241	0.004925040949
0	2445	20.62322098519	0.020854032342
0	2453	20.644075017532	0.078771754358
0	2459	20.72284677189	0.098261566326
0	2464	20.821108338216	0.033796769593
0	2469	20.854905107809	0.033312726439
0	2474	20.888217834248	0.010017555352
0	2479	20.8982353896	0.090731257724
0	2485	20.988966647324	0.014390114212
0	2490	21.003356761536	0.002745618659
0	2492	21.006102380195	0.088037959867
0	2500	21.094140340062	0.197207549525
0	2505	21.291347889587	0.011530424989
0	2510	21.302878314576	0.039093004865
0	2516	21.341971319441	0.002855476253
0	2518	21.344826795694	0.205097724419
0	2531	21.549924520113	0.034571820132
0	2536	21.584496340245	0.173565464254
0	2542	21.758061804499	0.004128167971
0	2544	21.76218997247	0.090956478659
0	2552	21.853146451129	0.043215847606
0	2558	21.896362298735	0.063054917036
0	2565	21.959417215771	0.002531743347
0	2567	21.961948959118	0.005535897347
0	2572	21.967484856465	0.001100865877
0	2574	21.968585722342	0.255024317449
0	2590	22.223610039791	0.043010710458
0	2595	22.266620750249	0.169094774671
0	2602	22.43571552492	0.01728894597
0	2607	22.45300447089	0.09775800815
0	2612	22.55076247904	0.119040099631
0	2618	22.669802578671	0.186709540721
0	2624	22.856512119392	0.025880162025
0	2630	22.882392281417	0.0227436058
0	2635	22.905135887217	0.095557545219
0	2641	23.000693432436	0.038561491082
0	2646	23.039254923518	0.070353831676
0	2651	23.109608755194	0.0242359896
0	2656	23.133844744794	0.018436647169
0	2661	23.152281391963	0.072223618685
0	2666	23.224505010648	0.002441031059
0	2668	23.226946041707	0.000698534175
0	2670	23.227644575882	0.113455712612
0	2681	23.341100288494	0.047217066685
0	2687	23.388317355179	0.166627959452
0	2692	23.554945314631	0.025845371948
0	2697	23.580790686579	0.004185869549
0	2699	23.584976556128	0.004870713453
0	2704	23.589847269581	0.009220918054
0	2709	23.599068187635	0.042633143814
0	2718	23.641701331449	0.032544581982
0	2723	23.674245913431	0.10181811056
0	2728	23.776064023991	0.059131080307
0	2734	23.835195104298	0.042207111769
0	2740	23.877402216067	0.052048642739
0	2745	23.929450858806	0.045610516554
0	2750	23.97506137536	0.032513187745
0	2755	24.007574563105	0.019421136956
0	2760	24.026995700061	0.256443242316
0	2768	24.283438942377	0.002283963122
0	2770	24.285722905499	0.048842268592
0	2778	24.334565174091	0.249315225204
0	2785	24.583880399295	0.032788501333
0	2790	24.616668900628	0.023750536762
0	2795	24.64041943739	0.205769561283
0	2802	24.846188998673	0.083169631434
0	2807	24.929358630107	0.006726885148
0	2810	24.936085515255	0.078102379545
0	2819	25.0141878948	0.034521396498
0	2824	25.048709291298	0.044998579256
0	2829	25.093707870554	0.07417305516
0	2834	25.167880925714	0.039084818448
0	2839	25.206965744162	0.212333474547
0	2844	25.419299218709	0.136393435417
0	2850	25.555692654126	0.038422112404
0	2856	25.59411476653	0.009833883185
0	2861	25.603948649715	0.008325434929
0	2864	25.612274084644	0.055444554521
0	2874	25.667718639165	0.093721920878
0	2879	25.761440560043	0.00653668501
0	2881	25.767977245053	0.000287821256
0	2883	25.768265066309	0.002731679785
0	2888	25.770996746094	0.054678738562
0	2900	25.825675484656	0.034886195644
0	2905	25.8605616803	0.003808480382
0	2907	25.864370160682	0.063802318004
0	2915	25.928172478686	0.023621031622
0	2920	25.951793510308	0.004978102466
0	2922	25.956771612774	0.091664902895
0	2931	26.048436515669	0.03396348935
0	2937	26.082400005019	0.046483067837
0	2942	26.128883072856	0.045792480796
0	2947	26.174675553652	0.014079094865
0	2952	26.188754648517	0.070571970941
0	2957	26.259326619458	0.034430290928
0	2962	26.293756910386	0.013641184135
0	2967	26.307398094521	0.119163001013
0	2974	26.426561095534	0.033326632425
0	2979	26.459887727959	0.115973796338
0	2984	26.575861524297	0.011773537031
0	2989	26.587635061328	0.098420100759
0	2994	26.686055162087	0.013854552298
0	2999	26.699909714385	0.146679863937
0	3004	26.846589578322	0.145149673464
0	3010	26.991739251786	0.017562880794
0	3015	27.00930213258	0.108061487681
0	3020	27.117363620261	0.002000570545
0	3022	27.119364190806	0.067003028859
0	3031	27.186367219665	0.0028249775
0	3033	27.189192197165	0.03030990729
0	3042	27.219502104455	0.01619339965
0	3047	27.235695504105	0.04094263201
0	3053	27.276638136115	0.00741562511
0	3055	27.284053761225	0.147868942137
0	3063	27.431922703362	0.063960152355
0	3068	27.495882855717	0.017286742503
0	3073	27.51316959822	0.013029055903
0	3078	27.526198654123	0.019026542069
0	3083	27.545225196192	0.028224373117
0	3088	27.573449569309	0.202643817836
0	3096	27.776093387145	0.045517714383
0	3101	27.821611101528	0.013710751218
0	3106	27.835321852746	0.00941120963
0	3111	27.844733062376	0.039801650592
0	3116	27.884534712968	0.062238170674
0	3121	27.946772883642	0.088265729647
0	3128	28.035038613289	0.200880863144
0	3134	28.235919476433	0.002559979984
0	3136	28.238479456417	0.044133135987
0	3144	28.282612592404	0.037813441061
0	3150	28.320426033465	0.073096520708
0	3157	28.393522554173	0.022712612357
0	3162	28.41623516653	0.087147689254
0	3167	28.503382855784	0.206023876583
0	3172	28.709406732367	0.041644199593
0	3178	28.75105093196	0.017794757469
0	3184	28.768845689429	0.057031297711
0	3189	28.82587698714	0.097892503254
0	3197	28.923769490394	0.128324421768
0	3204	29.052093912162	0.027215198477
0	3209	29.079309110639	0.003707700168
0	3211	29.083016810807	0.026768293684
0	3219	29.109785104491	0.180834451546
0	3224	29.290619556037	0.079898363559
0	3229	29.370517919596	0.055388944602
0	3235	29.425906864198	0.080607145779
0	3241	29.506514009977	0.089928960814
0	3246	29.596442970791	0.027286896143
0	3251	29.623729866934	0.022547811116
0	3256	29.64627767805	0.033955211317
0	3261	29.680232889367	0.008095299984
0	3266	29.688328189351	0.009826263215
0	3271	29.698154452566	0.062183787143
0	3277	29.760338239709	0.066270663575
0	3283	29.826608903284	0.143251124394
0	3289	29.969860027678	0.000156904355
0	3291	29.970016932033	0.021178833169
0	3299	29.991195765202	0.100019096588
0	3307	30.09121486179	0.001105278943
0	3309	30.092320140733	0.012843569142
0	3315	30.105163709875	0.074651122467
0	3325	30.179814832342	0.00316625684
0	3327	30.182981089182	0.050351478857
0	3336	30.233332568039	0.137308759829
0	3342	30.370641327868	0.089673846814
0	3350	30.460315174682	0.031297990774
0	3355	30.491613165456	0.052439553891
0	3360	30.544052719347	0.017038750293
0	3365	30.56109146964	0.004581414758
0	3367	30.565672884398	0.253057978522
0	3378	30.81873086292	0.006642433333
0	3380	30.825373296253	0.106577819351
0	3388	30.931951115604	0.091127078676
0	3393	31.02307819428	0.124416833824
0	3399	31.147495028104	0.018128850253
0	3404	31.165623878357	0.008376314977
0	3409	31.174000193334	0.047720919613
0	3414	31.221721112947	0.004622033682
0	3416	31.226343146629	0.001590297186
0	3418	31.227933443815	0.012599345573
0	3426	31.240532789388	0.00068615878
0	3428	31.241218948168	0.012604968373
0	3436	31.253823916541	0.006932326548
0	3441	31.260756243089	0.047338231675
0	3450	31.308094474764	0.332886722879
0	3456	31.640981197643	0.009789661911
0	3461	31.650770859554	0.05865352258
0	3466	31.709424382134	0.032336444973
0	3471	31.741760827107	0.049672031289
0	3476	31.791432858396	0.030017949185
0	3481	31.821450807581	0.093059279205
0	3486	31.914510086786	0.039045342822
0	3491	31.953555429608	0.012287321037
0	3498	31.965842750645	0.003750277001
0	3500	31.969593027646	0.023339532239
0	3508	31.992932559885	0.057853793976
0	3514	32.050786353861	0.006464254537
0	3516	32.057250608398	0.001246826
0	3518	32.058497434398	0.059350540531
0	3530	32.117847974929	0.024522845329
0	3535	32.142370820258	0.047664854552
0	3541	32.19003567481	0.021757857092
0	3546	32.211793531902	0.024063706334
0	3551	32.235857238236	0.011818790805
0	3556	32.247676029041	0.017110817637
0	3561	32.264786846678	0.005253530185
0	3563	32.270040376863	0.060954222
0	3572	32.330994598863	0.009856600458
0	3577	32.340851199321	0.018601336434
0	3582	32.359452535755	0.005431861947
0	3584	32.364884397702	0.035265738961
0	3592	32.400150136663	0.016926339012
0	3597	32.417076475675	0.072411522789
0	3602	32.489487998464	0.012987333831
0	3607	32.502475332295	0.046612092688
0	3612	32.549087424983	0.033998447147
0	3617	32.58308587213	0.087041572746
0	3622	32.670127444876	0.012147464066
0	3627	32.682274908942	0.017717949828
0	3632	32.69999285877	0.052433123504
0	3637	32.752425982274	0.002701168227
0	3639	32.755127150501	0.006615446162
0	3644	32.761742596663	0.010231302456
0	3651	32.771973899119	0.037608039629
0	3659	32.809581938748	0.019759327825
0	3665	32.829341266573	0.127124459724
0	3673	32.956465726297	0.089499469486
0	3678	33.045965195783	0.014540438851
0	3683	33.060505634634	0.076782014311
0	3689	33.137287648945	0.033956692614
0	3695	33.171244341559	0.046011573909
0	3700	33.217255915468	0.024936160791
0	3705	33.242192076259	0.008237111339
0	3710	33.250429187598	0.002758750706
0	3712	33.253187938304	0.018878238615
0	3721	33.272066176919	0.049386067967
0	3727	33.321452244886	0.088448964103
0	3734	33.409901208989	0.017329252023
0	3739	33.427230461012	0.013845457551
0	3744	33.441075918563	0.024240599852
0	3749	33.465316518415	0.005018537263
0	3751	33.470335055678	0.03509721145
0	3759	33.505432267128	0.031748222556
0	3765	33.537180489684	0.008408641063
0	3770	33.545589130747	0.008090180686
0	3772	33.553679311433	0.009254563336
0	3780	33.562933874769	0.05778032025
0	3786	33.620714195019	0.021845235027
0	3791	33.642559430046	0.013138604123
0	3796	33.655698034169	0.092927197824
0	3802	33.748625231993	0.117259010851
0	3809	33.865884242844	0.004033106628
0	3811	33.869917349472	0.021532798786
0	3820	33.891450148258	0.001019308346
0	3822	33.892469456604	0.054535475127
0	3830	33.947004931731	0.029523285748
0	3835	33.976528217479	0.107348522703
0	3842	34.083876740182	0.056622092029
0	3847	34.140498832211	0.010621898834
0	3852	34.151120731045	0.008799078066
0	3857	34.159919809111	0.114441586456
0	3864	34.274361395567	0.006459199784
0	3866	34.280820595351	0.143343298432
0	3875	34.424163893783	0.032065495362
0	3880	34.456229389145	0.224671835003
0	3891	34.680901224148	0.023011794865
0	3896	34.703913019013	0.021114906623
0	3901	34.725027925636	0.012381779396
0	3906	34.737409705032	0.056347835261
0	3914	34.793757540293	0.253584443651
0	3921	35.047341983944	0.031677191357
0	3926	35.079019175301	0.032465263452
0	3931	35.111484438753	0.00456128856
0	3933	35.116045727313	0.048872988485
0	3941	35.164918715798	0.028744430274
0	3946	35.193663146072	0.018749221526
0	3951	35.212412367598	0.035883999508
0	3957	35.248296367106	0.0013736183
0	3959	35.249669985406	0.056764919107
0	3967	35.306434904513	0.023313583283
0	3972	35.329748487796	0.006542163422
0	3974	35.336290651218	0.029340795988
0	3982	35.365631447206	0.297643853119
0	3988	35.663275300325	0.01614169428
0	3993	35.679416994605	0.014329248805
0	3998	35.69374624341	0.12157809678
0	4007	35.81532434019	0.059969938944
0	4013	35.875294279134	0.051119508123
0	4020	35.926413787257	0.012284148639
0	4025	35.938697935896	0.165825960902
0	4033	36.104523896798	0.003373105858
0	4035	36.107897002656	0.007048100099
0	4040	36.114945102755	0.020616370095
0	4048	36.13556147285	0.009640855476
0	4053	36.145202328326	0.001561956181
0	4055	36.146764284507	0.154326175448
0	4064	36.301090459955	0.018651703426
0	4069	36.319742163381	0.097495201337
0	4075	36.417237364718	0.114728015719
0	4083	36.531965380437	0.028192986724
0	4088	36.560158367161	0.097021506162
0	4094	36.657179873323	0.05363250253
0	4099	36.710812375853	0.020071134022
0	4104	36.730883509875	0.005492805924
0	4106	36.736376315799	0.067667449976
0	4115	36.804043765775	0.051865168082
0	4120	36.855908933857	0.000155256611
0	4122	36.856064190468	0.061397274603
0	4131	36.917461465071	0.056301677373
0	4136	36.973763142444	0.173475818571
0	4143	37.147238961015	0.003573043027
0	4145	37.150812004042	0.205721030767
0	4154	37.356533034809	0.08914625588
0	4159	37.445679290689	0.14611530212
0	4165	37.591794592809	0.004209173736
0	4167	37.596003766545	0.043020556382
0	4175	37.639024322927	0.20857857283
0	4181	37.847602895757	0.029686879882
0	4186	37.877289775639	0.023625848118
0	4191	37.900915623757	0.080542913465
0	4196	37.981458537222	0.015969568612
0	4201	37.997428105834	0.119503149993
0	4207	38.116931255827	0.040617935613
0	4213	38.15754919144	0.001885105557
0	4215	38.159434296997	0.049550859243
0	4224	38.20898515624	0.058583607297
0	4230	38.267568763537	0.089719538019
0	4235	38.357288301556	0.026612716432
0	4240	38.383901017988	0.019094620092
0	4245	38.40299563808	0.038620375212
0	4250	38.441616013292	0.107488131341
0	4256	38.549104144633	0.006277900866
0	4259	38.555382045499	0.110996722685
0	4269	38.666378768184	0.000711764901
0	4271	38.667090533085	0.009107083907
0	4276	38.676197616992	0.025464113532
0	4284	38.701661730524	0.060174289842
0	4290	38.761836020366	0.084574072894
0	4295	38.84641009326	0.091673225969
0	4300	38.938083319229	0.002651528194
0	4302	38.940734847423	0.003609282182
0	4304	38.944344129605	0.004599698604
0	4310	38.948943828209	0.010735391462
0	4315	38.959679219671	0.002126027464
0	4317	38.961805247135	0.0224657031
0	4328	38.984270950235	0.069757269742
0	4337	39.054028219977	0.029215936585
0	4342	39.083244156562	0.017100935382
0	4348	39.100345091944	0.103893820926
0	4353	39.20423891287	0.02488389023
0	4358	39.2291228031	0.032473177427
0	4364	39.261595980527	0.010113935126
0	4369	39.271709915653	0.032449300294
0	4375	39.304159215947	0.057408100434
0	4380	39.361567316381	0.010603744886
0	4385	39.372171061267	0.09890234664
0	4391	39.471073407907	0.074502733943
0	4396	39.54557614185	0.043182403876
0	4401	39.588758545726	0.049674473899
0	4406	39.638433019625	0.015571608846
0	4411	39.654004628471	0.047079355788
0	4417	39.701083984259	0.029776482596
0	4422	39.730860466855	0.145612571577
0	4427	39.876473038432	0.039210947752
0	4432	39.915683986184	0.004767945429
0	4434	39.920451931613	0.169762014952
0	4446	40.090213946565	0.149969174674
0	4454	40.240183121239	0.007523883786
0	4456	40.247707005025	0.002690992822
0	4461	40.250397997847	0.098717735084
0	4470	40.349115732931	0.219476298139
0	4477	40.56859203107	0.030075145715
0	4482	40.598667176785	0.013341950837
0	4487	40.612009127622	0.047295718232
0	4492	40.659304845854	0.055407527071
0	4497	40.714712372925	0.001644636156
0	4499	40.716357009081	0.070759364978
0	4509	40.787116374059	0.007381459523
0	4511	40.794497833582	0.052022236884
0	4520	40.846520070466	0.092455529954
0	4525	40.93897560042	0.277356355221
0	4531	41.216331955641	0.007882493864
0	4536	41.224214449505	0.01886988624
0	4541	41.243084335745	0.018771377782
0	4546	41.261855713527	0.021632758092
0	4551	41.283488471619	0.050953811433
0	4556	41.334442283052	0.027538700931
0	4562	41.361980983983	0.034124402237
0	4567	41.39610538622	0.098294207605
0	4573	41.494399593825	0.117527115961
0	4579	41.611926709786	0.025168115343
0	4584	41.637094825129	0.07163472211
0	4589	41.708729547239	0.181916034067
0	4596	41.890645581306	0.054826750894
0	4602	41.9454723322	0.000781358351
0	4604	41.946253690551	0.032533708571
0	4612	41.978787399122	0.015388261325
0	4617	41.994175660447	0.224782243828
0	4623	42.218957904275	0.076613000434
0	4628	42.295570904709	0.053476719831
0	4633	42.34904762454	0.085707830004
0	4640	42.434755454544	0.035208163618
0	4645	42.469963618162	0.006810236908
0	4648	42.47677385507	0.01802927315
0	4656	42.49480312822	0.016187709857
0	4661	42.510990838077	0.006801392015
0	4663	42.517792230092	0.041656570167
0	4671	42.559448800259	0.001521306309
0	4673	42.560970106568	0.02147505317
0	4681	42.582445159738	0.019315722366
0	4688	42.601760882104	0.033996704554
0	4693	42.635757586658	0.059369268228
0	4699	42.695126854886	0.006825014323
0	4701	42.701951869209	0.016540683736
0	4709	42.718492552945	0.029432529685
0	4714	42.74792508263	0.111774541719
0	4720	42.859699624349	0.086263843543
0	4726	42.945963467892	0.188600522263
0	4733	43.134563990155	0.038365606604
0	4739	43.172929596759	0.082738349946
0	4744	43.255667946705	0.036572350905
0	4749	43.29224029761	0.003686020969
0	4751	43.295926318579	0.057060573898
0	4760	43.352986892477	0.01265089114
0	4765	43.365637783617	0.013346597792
0	4770	43.378984381409	0.081544661965
0	4775	43.460529043374	0.075411533184
0	4780	43.535940576558	0.118678516817
0	4785	43.654619093375	0.007627706964
0	4787	43.662246800339	0.114162396721
0	4799	43.77640919706	0.024697555052
0	4805	43.801106752112	0.007771151397
0	4810	43.808877903509	0.045453427398
0	4815	43.854331330907	0.020908919704
0	4820	43.875240250611	0.079285275776
0	4825	43.954525526387	0.00060609586
0	4827	43.955131622247	0.048416734109
0	4835	44.003548356356	0.059350379337
0	4840	44.062898735693	0.038450250367
0	4845	44.10134898606	0.008833393648
0	4851	44.110182379708	0.002634946428
0	4853	44.112817326136	0.006428955916
0	4859	44.119246282052	0.03959352165
0	4867	44.158839803702	0.055179178893
0	4873	44.214018982595	0.00962964398
0	4878	44.223648626575	0.097029460102
0	4884	44.320678086677	0.058776894206
0	4889	44.379454980883	0.036583414014
0	4895	44.416038394897	0.015023108562
0	4900	44.431061503459	0.040574764333
0	4905	44.471636267792	0.114601288049
0	4912	44.586237555841	0.051529928515
0	4917	44.637767484356	0.054192228256
0	4922	44.691959712612	0.119540289817
0	4927	44.811500002429	0.058776775548
0	4933	44.870276777977	0.05176343415
0	4938	44.922040212127	0.018213121265
0	4943	44.940253333392	0.05037785914
0	4948	44.990631192532	0.026364460994
0	4953	45.016995653526	0.14926180518
0	4959	45.166257458706	0.029812762769
0	4967	45.196070221475	0.100909823863
0	4973	45.296980045338	0.01046947857
0	4979	45.307449523908	0.02199934441
0	4984	45.329448868318	0.01045398208
0	4989	45.339902850398	0.015317532937
0	4994	45.355220383335	0.062579623949
0	4999	45.417800007284	0.010680762657
0	5004	45.428480769941	0.002487991762
0	5006	45.430968761703	0.078955932393
0	5015	45.509924694096	0.031463733518
0	5020	45.541388427614	0.03424923033
0	5025	45.575637657944	0.007638377843
0	5029	45.583276035787	0.002545530158
0	5034	45.585821565945	0.024021971831
0	5042	45.609843537776	0.012271426018
0	5047	45.622114963794	0.07148212332
0	5054	45.693597087114	0.052426503767
0	5059	45.746023590881	0.010696948244
0	5064	45.756720539125	0.043737065003
0	5069	45.800457604128	0.015918094502
0	5074	45.81637569863	0.013760690445
0	5079	45.830136389075	0.030281431838
0	5084	45.860417820913	0.014971111376
0	5089	45.875388932289	0.063123876091
0	5095	45.93851280838	0.054578848726
0	5100	45.993091657106	0.032804909445
0	5105	46.025896566551	0.034195795503
0	5110	46.060092362054	0.093207534029
0	5117	46.153299896083	0.111992761665
0	5124	46.265292657748	0.076503829797
0	5130	46.341796487545	0.057410683942
0	5135	46.399207171487	0.147468575413
0	5141	46.5466757469	0.082818416478
0	5146	46.629494163378	0.086888660251
0	5152	46.716382823629	0.10265620438
0	5160	46.819039028009	0.059919391968
0	5165	46.878958419977	0.000570486372
0	5167	46.879528906349	0.119747292256
0	5175	46.999276198605	0.09477660702
0	5180	47.094052805625	0.05040590669
0	5185	47.144458712315	0.173165022246
0	5191	47.317623734561	0.044890737542
0	5196	47.362514472103	0.047346787559
0	5203	47.409861259662	0.100152780287
0	5208	47.510014039949	0.046512205954
0	5213	47.556526245903	0.01193324148
0	5218	47.568459487383	0.079875966431
0	5224	47.648335453814	0.026446706077
0	5229	47.674782159891	0.034482135537
0	5234	47.709264295428	0.037634006351
0	5241	47.746898301779	0.126111191573
0	5248	47.873009493352	0.007053637719
0	5250	47.880063131071	0.131254145174
0	5258	48.011317276245	0.086154983022
0	5264	48.097472259267	0.143186836004
0	5271	48.240659095271	0.120222549535
0	5277	48.360881644806	0.045374204813
0	5282	48.406255849619	0.106268599306
0	5288	48.512524448925	0.131381503878
0	5294	48.643905952803	0.01481286629
0	5300	48.658718819093	0.032133127171
0	5305	48.690851946264	0.016557491349
0	5310	48.707409437613	0.031791083167
0	5315	48.73920052078	0.007367690733
0	5317	48.746568211513	0.078363628021
0	5325	48.824931839534	0.021183131735
0	5330	48.846114971269	0.000490691394
0	5332	48.846605662663	0.027088115028
0	5340	48.873693777691	0.015841097721
0	5345	48.889534875412	0.129440201822
0	5352	49.018975077234	0.035482786395
0	5357	49.054457863629	0.01699342365
0	5362	49.071451287279	0.067807076254
0	5367	49.139258363533	0.048834111152
0	5373	49.188092474685	0.221901080393
0	5381	49.409993555078	0.075226175542
0	5387	49.48521973062	0.106330670709
0	5392	49.591550401329	0.009279016873
0	5397	49.600829418202	0.020410499263
0	5402	49.621239917465	0.086648905742
0	5409	49.707888823207	0.010911422861
0	5414	49.718800246068	0.020638901044
0	5419	49.739439147112	0.023614094661
0	5424	49.763053241773	0.062341188847
0	5430	49.82539443062	0.00636561354
0	5432	49.83176004416	0.023739849093
0	5441	49.855499893253	0.020827221783
0	5446	49.876327115036	0.149538471807
0	5451	50.025865586843	0.076726716614
0	5457	50.102592303457	0.008321336255
0	5462	50.110913639712	0.034937343981
0	5467	50.145850983693	0.033196532985
0	5472	50.179047516678	0.023556057325
0	5477	50.202603574003	0.095421119822
0	5483	50.298024693825	0.001349632808
0	5485	50.299374326633	0.030330673409
0	5493	50.329705000042	0.011834075473
0	5498	50.341539075515	0.014226700769
0	5503	50.355765776284	0.051408420123
0	5508	50.407174196407	0.111871200377
0	5516	50.519045396784	0.100146508756
0	5521	50.61919190554	0.049251699774
0	5526	50.668443605314	0.003348082524
0	5528	50.671791687838	0.004652614616
0	5533	50.676444302454	0.004225089674
0	5535	50.680669392128	0.006411900922
0	5540	50.68708129305	0.036898105323
0	5551	50.723979398373	0.007277599142
0	5553	50.731256997515	0.041390280299
0	5562	50.772647277814	0.062989381943
0	5567	50.835636659757	0.054822522813
0	5572	50.89045918257	0.009398568943
0	5577	50.899857751513	0.026133319119
0	5582	50.925991070632	0.023059989443
0	5587	50.949051060075	0.033403640729
0	5592	50.982454700804	0.065152016557
0	5597	51.047606717361	0.069237851974
0	5604	51.116844569335	0.001482524639
0	5606	51.118327093974	0.0134441322
0	5611	51.131771226174	0.082091676794
0	5621	51.213862902968	0.075848234889
0	5627	51.289711137857	0.048177717927
0	5633	51.337888855784	0.051264745529
0	5638	51.389153601313	0.095359496088
0	5643	51.484513097401	0.041767584109
0	5649	51.52628068151	0.02271567948
0	5654	51.54899636099	0.001021897252
0	5656	51.550018258242	0.045885613981
0	5665	51.595903872223	0.096972688007
0	5670	51.69287656023	0.000856547103
0	5672	51.693733107333	0.149376390602
0	5682	51.843109497935	0.055378551892
0	5687	51.898488049827	0.002840242511
0	5689	51.901328292338	0.085829194547
0	5698	51.987157486885	0.068152170648
0	5703	52.055309657533	0.023065904641
0	5709	52.078375562174	0.050106320512
0	5714	52.128481882686	0.046205642676
0	5719	52.174687525362	0.003337863708
0	5722	52.17802538907	0.02381239926
0	5730	52.20183778833	0.084084984778
0	5736	52.285922773108	0.037302207154
0	5742	52.323224980262	0.242906369236
0	5750	52.566131349498	0.000478480961
0	5752	52.566609830459	0.011544264921
0	5757	52.57815409538	0.01607820308
0	5765	52.59423229846	0.065830101229
0	5770	52.660062399689	0.169623313156
0	5776	52.829685712845	0.00050281744
0	5778	52.830188530285	0.071755707003
0	5786	52.901944237288	0.004253306811
0	5788	52.906197544099	0.011297888944
0	5796	52.917495433043	0.078897941763
0	5802	52.996393374806	0.028561456976
0	5807	53.024954831782	0.027308733216
0	5813	53.052263564998	0.019131642785
0	5819	53.071395207783	0.032697412692
0	5824	53.104092620475	0.034828864054
0	5829	53.138921484529	0.061205439841
0	5834	53.20012692437	0.00719917179
0	5837	53.20732609616	0.018822423018
0	5845	53.226148519178	0.101215157337
0	5851	53.327363676515	0.065057323443
0	5856	53.392420999958	0.083480067391
0	5862	53.475901067349	0.004770930246
0	5864	53.480671997595	0.012122048995
0	5872	53.49279404659	0.07181668864
0	5878	53.56461073523	0.045068141174
0	5886	53.609678876404	0.02304327491
0	5891	53.632722151314	0.26970725308
0	5897	53.902429404394	0.00450228406
0	5899	53.906931688454	0.018838443735
0	5907	53.925770132189	0.060964032323
0	5912	53.986734164512	0.081925586503
0	5918	54.068659751015	0.01309134621
0	5923	54.081751097225	0.025088976767
0	5928	54.106840073992	0.013021766809
0	5933	54.119861840801	0.036854717074
0	5938	54.156716557875	0.014500951813
0	5944	54.171217509688	0.096355904185
0	5950	54.267573413873	0.013210680629
0	5956	54.280784094502	0.041746417211
0	5962	54.322530511713	0.075444738125
0	5969	54.397975249838	0.080564119227
0	5974	54.478539369065	0.051353351597
0	5980	54.529892720662	0.039502448752
0	5987	54.569395169414	0.044247987589
0	5992	54.613643157003	0.024785845562
0	5998	54.638429002565	0.009140462974
0	6003	54.647569465539	0.067629447363
0	6008	54.715198912902	0.022125170601
0	6013	54.737324083503	0.009829872589
0	6018	54.747153956092	0.162164142667
0	6025	54.909318098759	0.013039822332
0	6031	54.922357921091	0.003990837134
0	6033	54.926348758225	0.007305546145
0	6038	54.93365430437	0.062950675948
0	6048	54.996604980318	0.027235826128
0	6053	55.023840806446	0.035218449797
0	6058	55.059059256243	0.015226976395
0	6064	55.074286232638	0.037240923207
0	6069	55.111527155845	0.027471894142
0	6076	55.138999049987	0.03417553454
0	6082	55.173174584527	0.002864675197
0	6084	55.176039259724	0.048327726033
0	6092	55.224366985757	0.04967392462
0	6098	55.274040910377	0.082101316656
0	6104	55.356142227033	0.018768411344
0	6109	55.374910638377	0.001106116416
0	6111	55.376016754793	0.007433279165
0	6116	55.383450033958	0.06003222252
0	6124	55.443482256478	0.09556944947
0	6131	55.539051705948	0.047142126165
0	6136	55.586193832113	0.030638968332
0	6142	55.616832800445	0.030622647432
0	6148	55.647455447877	0.106675568228
0	6155	55.754131016105	0.000489748404
0	6157	55.754620764509	0.007319839975
0	6162	55.761940604484	0.012880031057
0	6167	55.774820635541	0.043172179553
0	6175	55.817992815094	0.160425489884
0	6183	55.978418304978	0.01950951288
0	6188	55.997927817858	0.11260953813
0	6195	56.110537355988	0.065808607515
0	6201	56.176345963503	0.073476013054
0	6206	56.249821976557	0.009868331665
0	6211	56.259690308222	0.015553863298
0	6216	56.27524417152	0.117142318322
0	6222	56.392386489842	0.033759814642
0	6227	56.426146304484	0.112272730326
0	6232	56.53841903481	0.024548298778
0	6237	56.562967333588	0.022743244885
0	6243	56.585710578473	0.071537417224
0	6248	56.657247995697	0.032912138088
0	6253	56.690160133785	0.070465330016
0	6258	56.760625463801	0.01297492698
0	6264	56.773600390781	0.007271513685
0	6266	56.780871904466	0.002351743442
0	6271	56.783223647908	0.049387857346
0	6279	56.832611505254	0.051487872701
0	6284	56.884099377955	0.054961755402
0	6289	56.939061133357	0.176036481898
0	6295	57.115097615255	0.012594001511
0	6300	57.127691616766	0.011455643178
0	6306	57.139147259944	0.084830843072
0	6311	57.223978103016	0.066656246725
0	6316	57.290634349741	0.066514607276
0	6322	57.357148957017	0.008449622765
0	6327	57.365598579782	0.066762554277
0	6333	57.432361134059	0.061216927181
0	6338	57.49357806124	0.083221573389
0	6343	57.576799634629	0.090565727465
0	6348	57.667365362094	0.038023821708
0	6353	57.705389183802	0.007952803767
0	6358	57.713341987569	0.000300377036
0	6360	57.713642364605	0.017341379873
0	6368	57.730983744478	0.033802997079
0	6373	57.764786741557	0.006813893063
0	6375	57.77160063462	0.022655943306
0	6383	57.794256577926	0.055726674035
0	6388	57.849983251961	0.087484810109
0	6394	57.93746806207	0.046667255394
0	6399	57.984135317464	0.106646857105
0	6405	58.090782174569	0.027656150874
0	6410	58.118438325443	0.078968392492
0	6415	58.197406717935	0.001162618415
0	6417	58.19856933635	0.004884505984
0	6419	58.203453842334	0.097496297695
0	6430	58.300950140029	0.096699405892
0	6436	58.397649545921	0.084880753927
0	6441	58.482530299848	0.108966902059
0	6447	58.591497201907	0.035873802527
0	6454	58.627371004434	0.170870057684
0	6459	58.798241062118	0.16330708706
0	6465	58.961548149178	0.021599276905
0	6470	58.983147426083	0.246056815061
0	6476	59.229204241144	0.023439516704
0	6481	59.252643757848	0.011776394523
0	6486	59.264420152371	0.007568662454
0	6488	59.271988814825	0.079865166575
0	6496	59.3518539814	0.098705620716
0	6501	59.450559602116	0.020688015964
0	6507	59.47124761808	0.010599122461
0	6512	59.481846740541	0.022701354981
0	6517	59.504548095522	0.017663232708
0	6522	59.52221132823	0.034639640077
0	6527	59.556850968307	0.016848348785
0	6533	59.573699317092	0.065388902081
0	6538	59.639088219173	0.027634543008
0	6543	59.666722762181	0.066068036931
0	6550	59.732790799112	0.021205004157
0	6555	59.753995803269	0.005653328866
0	6557	59.759649132135	0.043307324444
0	6565	59.802956456579	0.031636101556
0	6570	59.834592558135	0.050790231884
0	6575	59.885382790019	0.027957417418
0	6580	59.913340207437	0.095657456651
0	6586	60.008997664088	0.132784103004
0	6593	60.141781767092	0.108670565021
0	6600	60.250452332113	0.017627029381
0	6605	60.268079361494	0.093733475576
0	6611	60.36181283707	0.010691436885
0	6616	60.372504273955	0.025945880645
0	6621	60.3984501546	0.037877184888
0	6627	60.436327339488	0.119346515428
0	6633	60.555673854916	0.045393153282
0	6638	60.601067008198	0.094860288665
0	6643	60.695927296863	0.035192530408
0	6648	60.731119827271	0.052742221004
0	6654	60.783862048275	0.026105372604
0	6659	60.809967420879	0.006860188719
0	6662	60.816827609598	0.127604280699
0	6670	60.944431890297	0.035819020205
0	6675	60.980250910502	0.020404632327
0	6680	61.000655542829	0.015150971995
0	6685	61.015806514824	0.077440862267
0	6690	61.093247377091	0.006494470404
0	6692	61.099741847495	0.036345481506
0	6700	61.136087329001	0.013019953342
0	6705	61.149107282343	0.000872548591
0	6707	61.149979830934	0.015528195197
0	6716	61.165508026131	0.002259762568
0	6718	61.167767788699	0.004196952162
0	6720	61.171964740861	0.022170922058
0	6731	61.194135662919	0.120786035068
0	6736	61.314921697987	0.293814761841
0	6742	61.608736459828	0.062690120391
0	6749	61.671426580219	0.025595954279
0	6754	61.697022534498	0.002592965942
0	6756	61.69961550044	0.209548899731
0	6764	61.909164400171	3.196972e-06
0	6766	61.909167597143	0.055413332783
0	6774	61.964580929926	0.054640638421
0	6779	62.019221568347	0.107625850143
0	6785	62.12684741849	0.079289257468
0	6791	62.206136675958	0.055062791226
0	6797	62.261199467184	0.023413941256
0	6802	62.28461340844	0.006967545418
0	6804	62.291580953858	0.155233493588
0	6814	62.446814447446	0.030625909541
0	6819	62.477440356987	0.024362056115
0	6825	62.501802413102	0.062808285836
0	6830	62.564610698938	0.333012584653
0	6838	62.897623283591	0.060491573207
0	6843	62.958114856798	0.0123979204
0	6848	62.970512777198	0.03367986475
0	6853	63.004192641948	0.00192701757
0	6855	63.006119659518	0.040489026404
0	6863	63.046608685922	0.007917815155
0	6868	63.054526501077	0.017137224273
0	6873	63.07166372535	0.052246064467
0	6879	63.123909789817	0.074345408521
0	6885	63.198255198338	0.061732260095
0	6890	63.259987458433	0.027932377124
0	6895	63.287919835557	0.009650942225
0	6900	63.297570777782	0.164953687452
0	6909	63.462524465234	0.054263069945
0	6914	63.516787535179	0.01348596122
0	6920	63.530273496399	0.042650890239
0	6925	63.572924386638	0.003263342156
0	6927	63.576187728794	0.050616794193
0	6935	63.626804522987	0.040178549854
0	6941	63.666983072841	0.06361090599
0	6947	63.730593978831	0.028667007495
0	6953	63.759260986326	0.068026704339
0	6958	63.827287690665	0.09039458556
0	6965	63.917682276225	0.00134205589
0	6967	63.919024332115	0.110404154244
0	6975	64.029428486359	0.145740510235
0	6980	64.175168996594	0.0433590167
0	6985	64.218528013294	0.126701069925
0	6992	64.345229083219	0.127309960256
0	6998	64.472539043475	0.058173848074
0	7004	64.530712891549	0.021526783066
0	7009	64.552239674615	0.000139236587
0	7011	64.552378911202	0.031689821889
0	7020	64.584068733091	0.085672964471
0	7026	64.669741697562	0.011780641165
0	7031	64.681522338727	0.017996029716
0	7036	64.699518368443	0.154356565081
0	7042	64.853874933524	0.166902800715
0	7047	65.020777734239	0.024034508021
0	7052	65.04481224226	0.023951741777
0	7057	65.068763984037	0.001384843371
0	7059	65.070148827408	0.053656686914
0	7068	65.123805514322	0.066668237234
0	7073	65.190473751556	0.044982897018
0	7078	65.235456648574	0.010380234304
0	7083	65.245836882878	0.038491083659
0	7088	65.284327966537	0.03062252344
0	7094	65.314950489977	0.017472436942
0	7099	65.332422926919	0.046655438404
0	7104	65.379078365323	0.032694150748
0	7109	65.411772516071	0.0746511277
0	7114	65.486423643771	0.061832212077
0	7120	65.548255855848	0.021021029587
0	7125	65.569276885435	0.011974815963
0	7130	65.581251701398	0.053770548582
0	7137	65.63502224998	0.02976006848
0	7143	65.66478231846	0.013885028441
0	7148	65.678667346901	0.085644679683
0	7154	65.764312026584	0.019412425162
0	7159	65.783724451746	0.166502405469
0	7166	65.950226857215	0.07744363419
0	7172	66.027670491405	0.01114670051
0	7177	66.038817191915	0.043346418923
0	7182	66.082163610838	0.070336014217
0	7187	66.152499625055	0.022360671957
0	7192	66.174860297012	0.036085107407
0	7197	66.210945404419	0.046757515564
0	7204	66.257702919983	0.004678817507
0	7206	66.26238173749	0.015221874645
0	7214	66.277603612135	0.037275793162
0	7219	66.314879405297	0.0014365422
0	7221	66.316315947497	0.004344792625
0	7223	66.320660740122	0.163365522992
0	7238	66.484026263114	0.138013938505
0	7244	66.622040201619	0.000179451985
0	7246	66.622219653604	0.016791765553
0	7251	66.639011419157	0.153766647678
0	7260	66.792778066835	0.024648897602
0	7265	66.817426964437	0.03226703161
0	7270	66.849693996047	0.08161767914
0	7275	66.931311675187	0.086540168102
0	7282	67.017851843289	0.073996514886
0	7288	67.091848358175	0.001576112817
0	7290	67.093424470992	0.21505120481
0	7298	67.308475675802	0.08834172739
0	7303	67.396817403192	0.070488570056
0	7309	67.467305973248	0.012100721893
0	7314	67.479406695141	0.092991665351
0	7320	67.572398360492	0.021637760627
0	7325	67.594036121119	0.021705080265
0	7330	67.615741201384	0.112355372021
0	7335	67.728096573405	0.061566797039
0	7340	67.789663370444	0.027730194342
0	7345	67.817393564786	2.2493472e-05
0	7347	67.817416058258	0.007931603986
0	7352	67.825347662244	0.013502010639
0	7357	67.838849672883	0.026273348951
0	7365	67.865123021834	0.029521913603
0	7370	67.894644935437	0.054730784252
0	7375	67.949375719689	0.018880348856
0	7380	67.968256068545	0.116410025901
0	7385	68.084666094446	0.042497183018
0	7390	68.127163277464	0.002738378364
0	7392	68.129901655828	0.11062235074
0	7401	68.240524006568	0.038964715299
0	7406	68.279488721867	0.05459950822
0	7411	68.334088230087	0.015859217458
0	7416	68.349947447545	0.076198946045
0	7421	68.42614639359	0.015566439675
0	7426	68.441712833265	0.019894325145
0	7431	68.46160715841	0.08745146152
0	7436	68.54905861993	0.003180252365
0	7438	68.552238872295	0.039308854856
0	7447	68.591547727151	0.016293062628
0	7452	68.607840789779	0.139436912202
0	7458	68.747277701981	0.072045687672
0	7463	68.819323389653	0.016098853639
0	7468	68.835422243292	0.057702343401
0	7473	68.893124586693	0.062920879267
0	7478	68.95604546596	0.000938120384
0	7480	68.956983586344	0.009399485311
0	7485	68.966383071655	0.120659434861
0	7494	69.087042506516	0.007846941906
0	7499	69.094889448422	0.079752366188
0	7504	69.17464181461	0.0203761304
0	7509	69.19501794501	0.030511512056
0	7514	69.225529457066	0.001100953002
0	7516	69.226630410068	0.021399692067
0	7525	69.248030102135	0.004964973965
0	7527	69.2529950761	0.002588778212
0	7532	69.255583854312	0.002664903816
0	7534	69.258248758128	0.213253342804
0	7545	69.471502100932	0.207819189136
0	7551	69.679321290068	0.063001725989
0	7556	69.742323016057	0.068005663414
0	7561	69.810328679471	0.012867728787
0	7566	69.823196408258	0.006041409348
0	7568	69.829237817606	0.079586970357
0	7577	69.908824787963	0.120809448641
0	7582	70.029634236604	0.025762261188
0	7587	70.055396497792	0.044056080305
0	7592	70.099452578097	0.006764974959
0	7594	70.106217553056	0.001768070466
0	7599	70.107985623522	0.089542353815
0	7608	70.197527977337	0.012620158122
0	7613	70.210148135459	0.042657537243
0	7619	70.252805672702	0.007055053542
0	7621	70.259860726244	0.017571276341
0	7629	70.277432002585	0.023616572258
0	7634	70.301048574843	0.035053632128
0	7639	70.336102206971	0.069567405326
0	7646	70.405669612297	0.028812169801
0	7651	70.434481782098	0.038583070802
0	7656	70.4730648529	0.03942462227
0	7661	70.51248947517	0.036234912398
0	7666	70.548724387568	0.04602737887
0	7671	70.594751766438	0.027167622262
0	7676	70.6219193887	0.020097558215
0	7681	70.642016946915	0.112123381377
0	7687	70.754140328292	0.054419357572
0	7692	70.808559685864	0.001142186564
0	7694	70.809701872428	0.030608911371
0	7702	70.840310783799	0.004530311338
0	7704	70.844841095137	0.013431566325
0	7712	70.858272661462	0.136786609256
0	7719	70.995059270718	0.021237594832
0	7724	71.01629686555	0.085495943798
0	7730	71.101792809348	0.013925254892
0	7735	71.11571806424	0.090967878717
0	7740	71.206685942957	0.319197778676
0	7749	71.525883721633	0.129767399622
0	7756	71.655651121255	0.178338624137
0	7763	71.833989745392	0.009774183227
0	7768	71.843763928619	0.005843246444
0	7770	71.849607175063	0.011812188964
0	7778	71.861419364027	0.005820662281
0	7780	71.867240026308	0.044841410743
0	7788	71.912081437051	0.001560042622
0	7790	71.913641479673	0.041149247833
0	7799	71.954790727506	0.007540472661
0	7801	71.962331200167	0.059565362323
0	7809	72.02189656249	0.047563950167
0	7814	72.069460512657	0.125533380924
0	7820	72.194993893581	0.062430521339
0	7825	72.25742441492	0.006762069759
0	7827	72.264186484679	0.047188275586
0	7835	72.311374760265	0.040473468513
0	7840	72.351848228778	0.069653004355
0	7845	72.421501233133	0.01488088457
0	7850	72.436382117703	0.062285693415
0	7856	72.498667811118	0.058709666598
0	7862	72.557377477716	0.009125408234
0	7867	72.56650288595	0.03758480753
0	7873	72.60408769348	0.050737214799
0	7878	72.654824908279	0.003605208754
0	7880	72.658430117033	0.007665170483
0	7885	72.666095287516	0.002720837525
0	7887	72.668816125041	0.028539685817
0	7898	72.697355810858	0.061545065574
0	7903	72.758900876432	0.053553257974
0	7908	72.812454134406	0.05096891814
0	7913	72.863423052546	0.14717805872
0	7920	73.010601111266	0.100827009844
0	7926	73.11142812111	0.004427241601
0	7928	73.115855362711	0.032014794602
0	7936	73.147870157313	0.019098032686
0	7941	73.166968189999	0.064899922926
0	7948	73.231868112925	0.050460449376
0	7953	73.282328562301	0.018458518726
0	7958	73.300787081027	0.04326442897
0	7963	73.344051509997	0.002792715188
0	7965	73.346844225185	0.061970835868
0	7974	73.408815061053	0.087331621442
0	7979	73.496146682495	0.01158651741
0	7984	73.507733199905	0.010240117421
0	7989	73.517973317326	0.010285703011
0	7995	73.528259020337	0.055580287218
0	8002	73.583839307555	0.054000536717
0	8007	73.637839844272	0.055802484795
0	8014	73.693642329067	0.06101981809
0	8019	73.754662147157	0.064378576166
0	8024	73.819040723323	0.000938681259
0	8026	73.819979404582	0.012289279245
0	8031	73.832268683827	0.000605764132
0	8033	73.832874447959	0.096388164603
0	8044	73.929262612562	0.066880663269
0	8049	73.996143275831	0.006175735897
0	8051	74.002319011728	0.025364557415
0	8059	74.027683569143	0.057429660755
0	8064	74.085113229898	0.059365671066
0	8070	74.144478900964	0.118240447916
0	8075	74.26271934888	0.005426023053
0	8078	74.268145371933	0.016886999377
0	8086	74.28503237131	0.01524119893
0	8091	74.30027357024	0.008086210526
0	8096	74.308359780766	0.0775798545
0	8101	74.385939635266	0.009420686198
0	8106	74.395360321464	0.202697018738
0	8115	74.598057340202	0.143447256684
0	8122	74.741504596886	0.003760985091
0	8124	74.745265581977	0.017862870404
0	8132	74.763128452381	0.091753054285
0	8137	74.854881506666	0.146258214703
0	8143	75.001139721369	0.04053595101
0	8148	75.041675672379	0.0819916154
0	8154	75.123667287779	0.023143374435
0	8159	75.146810662214	0.001239778249
0	8161	75.148050440463	0.005891762441
0	8163	75.153942202904	0.003589381993
0	8168	75.157531584897	0.060049771197
0	8180	75.217581356094	0.048170101146
0	8185	75.26575145724	0.042998549471
0	8190	75.308750006711	0.032991504904
0	8195	75.341741511615	0.003950290078
0	8197	75.345691801693	0.010433206422
0	8202	75.356125008115	0.082496959273
0	8210	75.438621967388	0.086769968812
0	8215	75.5253919362	0.148607729446
0	8220	75.673999665646	0.006107560142
0	8222	75.680107225788	0.02648916845
0	8230	75.706596394238	0.020830011678
0	8235	75.727426405916	0.062868341023
0	8240	75.790294746939	0.143368756391
0	8246	75.93366350333	0.015640585941
0	8251	75.949304089271	0.113977132829
0	8257	76.0632812221	0.002168145148
0	8259	76.065449367248	0.001027279428
0	8261	76.066476646676	0.005254311745
0	8266	76.071730958421	0.044007035397
0	8277	76.115737993818	0.179947633749
0	8283	76.295685627567	0.035810791789
0	8288	76.331496419356	0.153502699466
0	8294	76.484999118822	0.075575346265
0	8300	76.560574465087	0.0095602366
0	8305	76.570134701687	0.097894017748
0	8310	76.668028719435	0.104772983769
0	8315	76.772801703204	0.068323541634
0	8320	76.841125244838	0.077979378429
0	8325	76.919104623267	0.054377477393
0	8330	76.97348210066	0.007647590936
0	8332	76.981129691596	0.016744845545
0	8340	76.997874537141	0.074761658148
0	8346	77.072636195289	0.007361399169
0	8348	77.079997594458	0.00746368074
0	8353	77.087461275198	0.010193257853
0	8361	77.097654533051	0.029100135075
0	8366	77.126754668126	0.022045164315
0	8371	77.148799832441	0.002997820822
0	8373	77.151797653263	0.025823097416
0	8381	77.177620750679	0.035148385714
0	8386	77.212769136393	0.053318341506
0	8394	77.266087477899	0.090751522084
0	8400	77.356838999983	0.032981857404
0	8405	77.389820857387	0.04693245458
0	8410	77.436753311967	0.050082670454
0	8415	77.486835982421	0.050478301154
0	8420	77.537314283575	0.025684413835
0	8427	77.56299869741	0.035442718099
0	8432	77.598441415509	0.015279421474
0	8437	77.613720836983	0.051799282845
0	8443	77.665520119828	0.028222344857
0	8448	77.693742464685	0.011007586407
0	8453	77.704750051092	0.075488644784
0	8458	77.780238695876	0.050296630318
0	8463	77.830535326194	0.068689711963
0	8468	77.899225038157	0.11827229214
0	8473	78.017497330297	0.05739574753
0	8478	78.074893077827	0.040619147128
0	8483	78.115512224955	0.091848254451
0	8489	78.207360479406	0.031391941841
0	8494	78.238752421247	0.012544530125
0	8499	78.251296951372	0.019253651341
0	8504	78.270550602713	0.015272012694
0	8509	78.285822615407	0.064613237129
0	8514	78.350435852536	0.062577939906
0	8519	78.413013792442	0.006738468478
0	8521	78.41975226092	0.029294880289
0	8529	78.449047141209	0.170802670557
0	8535	78.619849811766	0.029967774478
0	8541	78.649817586244	0.03953081768
0	8546	78.689348403924	0.009706671551
0	8551	78.699055075475	0.087084320781
0	8558	78.786139396256	0.070187715323
0	8563	78.856327111579	0.031701552614
0	8569	78.888028664193	0.045680476553
0	8575	78.933709140746	0.047654486495
0	8581	78.981363627241	0.066646674328
0	8587	79.048010301569	0.098358221781
0	8592	79.14636852335	0.041554619853
0	8597	79.187923143203	0.014368440811
0	8602	79.202291584014	0.044342625406
0	8607	79.24663420942	0.01970670631
0	8612	79.26634091573	0.02381368931
0	8617	79.29015460504	0.0226847974
0	8622	79.31283940244	0.008542485717
0	8627	79.321381888157	0.068901950678
0	8634	79.390283838835	0.009170356272
0	8640	79.399454195107	0.139623275966
0	8647	79.539077471073	0.032614756893
0	8652	79.571692227966	0.050315259206
0	8657	79.622007487172	0.04231834556
0	8662	79.664325832732	0.013810226555
0	8667	79.678136059287	0.005447837063
0	8669	79.68358389635	0.015534076725
0	8677	79.699117973075	0.069466306765
0	8683	79.76858427984	0.039313442884
0	8688	79.807897722724	0.071220384265
0	8695	79.879118106989	0.013219865372
0	8700	79.892337972361	0.021375966608
0	8705	79.913713938969	0.049024800186
0	8710	79.962738739155	0.07983056857
0	8716	80.042569307725	0.105488146016
0	8721	80.148057453741	0.002950865815
0	8723	80.151008319556	0.040763542972
0	8732	80.191771862528	0.006759484647
0	8734	80.198531347175	0.036274900011
0	8742	80.234806247186	0.064045146469
0	8747	80.298851393655	0.078898849084
0	8752	80.377750242739	0.027250507296
0	8757	80.405000750035	0.115534041258
0	8763	80.520534791293	0.008211767044
0	8768	80.528746558337	0.035918522348
0	8773	80.564665080685	0.004112884088
0	8775	80.568777964773	0.001562247663
0	8777	80.570340212436	0.055325851031
0	8788	80.625666063467	0.08401444753
0	8795	80.709680510997	0.14420896117
0	8800	80.853889472167	0.087873309121
0	8807	80.941762781288	0.015954169686
0	8812	80.957716950974	0.015631624252
0	8817	80.973348575226	0.039463472347
0	8822	81.012812047573	0.077456179014
0	8828	81.090268226587	0.00031812639
0	8830	81.090586352977	0.03861271048
0	8838	81.129199063457	0.080029668982
0	8844	81.209228732439	0.002541557491
0	8846	81.21177028993	0.028679934303
0	8855	81.240450224233	0.029254491765
0	8860	81.269704715998	0.007290516382
0	8862	81.27699523238	0.052710636508
0	8870	81.329705868888	0.08420553426
0	8875	81.413911403148	0.072613511337
0	8880	81.486524914485	0.127212553231
0	8890	81.613737467716	0.035513895129
0	8895	81.649251362845	0.008638324577
0	8900	81.657889687422	0.006234552079
0	8902	81.664124239501	0.032048795164
0	8910	81.696173034665	0.097908113383
0	8916	81.794081148048	0.00580459135
0	8918	81.799885739398	0.045407197115
0	8926	81.845292936513	0.062348443493
0	8931	81.907641380006	0.051248508569
0	8936	81.958889888575	0.079744247854
0	8942	82.038634136429	0.077330852459
0	8948	82.115964988888	0.018083291974
0	8953	82.134048280862	0.040310052958
0	8958	82.17435833382	0.018558322623
0	8963	82.192916656443	0.058351975575
0	8968	82.251268632018	0.075426764367
0	8973	82.326695396385	0.06130633535
0	8978	82.388001731735	0.049523353763
0	8983	82.437525085498	0.001754393408
0	8985	82.439279478906	0.089229216353
0	8995	82.528508695259	0.021924602052
0	9001	82.550433297311	0.114667435012
0	9006	82.665100732323	0.046529430421
0	9011	82.711630162744	0.042056591586
0	9016	82.75368675433	0.001174231496
0	9018	82.754860985826	0.042427923478
0	9026	82.797288909304	0.023401322843
0	9032	82.820690232147	0.051153222137
0	9038	82.871843454284	0.00903475703
0	9043	82.880878211314	0.047675077953
0	9048	82.928553289267	0.014593932809
0	9054	82.943147222076	0.155035520301
0	9060	83.098182742377	0.147213728768
0	9065	83.245396471145	0.000402512673
0	9067	83.245798983818	0.021668680308
0	9075	83.267467664126	0.033174043065
0	9080	83.300641707191	0.005245407605
0	9082	83.305887114796	0.052178568938
0	9092	83.358065683734	0.071854804342
0	9097	83.429920488076	0.037950506366
0	9102	83.467870994442	0.069292137047
0	9107	83.537163131489	0.012593512168
0	9112	83.549756643657	0.103890169569
0	9118	83.653646813226	0.021983809334
0	9123	83.67563062256	0.001079246367
0	9125	83.676709868927	0.149439412508
0	9135	83.826149281435	0.065499432595
0	9140	83.89164871403	0.070154216844
0	9145	83.961802930874	0.043029762417
0	9150	84.004832693291	0.102529335753
0	9155	84.107362029044	0.034995011085
0	9160	84.142357040129	0.036538634619
0	9166	84.178895674748	0.011445738711
0	9171	84.190341413459	0.103973827722
0	9177	84.294315241181	0.055160653502
0	9183	84.349475894683	0.046299370945
0	9188	84.395775265628	0.181301471798
0	9194	84.577076737426	0.026478410554
0	9199	84.60355514798	0.050861750469
0	9204	84.654416898449	0.007671273969
0	9206	84.662088172418	0.039496395746
0	9214	84.701584568164	0.012804802797
0	9219	84.714389370961	0.035595608886
0	9224	84.749984979847	0.145345162591
0	9231	84.895330142438	0.013071356752
0	9236	84.90840149919	0.120285275856
0	9241	85.028686775046	0.021168639374
0	9246	85.04985541442	0.024226212966
0	9252	85.074081627386	0.001309897828
0	9254	85.075391525214	0.094093421279
0	9262	85.169484946493	0.082773338445
0	9267	85.252258284938	0.00472177744
0	9269	85.256980062378	0.036966245511
0	9277	85.293946307889	0.035950434691
0	9282	85.32989674258	0.007070663044
0	9284	85.336967405624	0.001898421414
0	9289	85.338865827038	0.045749808383
0	9297	85.384615635421	0.064422365652
0	9303	85.449038001073	8.6320271e-05
0	9305	85.449124321344	0.164991101769
0	9316	85.614115423113	0.027026527689
0	9321	85.641141950802	0.030404918735
0	9327	85.671546869537	0.018315561033
0	9333	85.68986243057	0.004441089731
0	9335	85.694303520301	0.014278277006
0	9344	85.708581797307	0.006627967804
0	9346	85.715209765111	0.041136220829
0	9354	85.75634598594	0.086420758365
0	9360	85.842766744305	0.0257167905
0	9366	85.868483534805	0.065607153558
0	9372	85.934090688363	0.024846327103
0	9378	85.958937015466	0.018936526055
0	9383	85.977873541521	0.115592342343
0	9389	86.093465883864	0.148742912287
0	9395	86.242208796151	0.005976092663
0	9397	86.248184888814	0.004214448566
0	9402	86.25239933738	0.076197568276
0	9411	86.328596905656	0.002278785918
0	9413	86.330875691574	0.011939003129
0	9418	86.342814694703	0.147544791793
0	9429	86.490359486496	0.064291252488
0	9434	86.554650738984	0.027140647085
0	9440	86.581791386069	0.002175046508
0	9442	86.583966432577	0.064442671499
0	9450	86.648409104076	0.020301437938
0	9456	86.668710542014	0.01436040123
0	9462	86.683070943244	0.012565095755
0	9467	86.695636038999	0.033101438958
0	9474	86.728737477957	0.002036346389
0	9476	86.730773824346	0.015172093237
0	9484	86.745945917583	0.105932381644
0	9489	86.851878299227	0.042536133786
0	9494	86.894414433013	0.050716552999
0	9501	86.945130986012	0.009270656677
0	9507	86.954401642689	0.016287939848
0	9512	86.970689582537	0.015591777046
0	9517	86.986281359583	0.035707182274
0	9522	87.021988541857	0.127377440033
0	9528	87.14936598189	0.000979233182
0	9530	87.150345215072	0.193306380541
0	9541	87.343651595613	0.046828560591
0	9546	87.390480156204	0.011763338206
0	9551	87.40224349441	0.032623648671
0	9556	87.434867143081	0.019198738239
0	9561	87.45406588132	0.052338823831
0	9566	87.506404705151	0.045687290848
0	9572	87.552091995999	0.00136052004
0	9574	87.553452516039	0.047263646372
0	9583	87.600716162411	0.070288817742
0	9588	87.671004980153	0.037601022975
0	9593	87.708606003128	0.034525908618
0	9598	87.743131911746	0.058462805185
0	9604	87.801594716931	0.050599261532
0	9610	87.852193978463	0.063207168734
0	9615	87.915401147197	0.04348807163
0	9621	87.958889218827	0.000542923565
0	9623	87.959432142392	0.012873170077
0	9628	87.972305312469	0.026827365269
0	9636	87.999132677738	0.066584144634
0	9642	88.065716822372	0.001503229184
0	9644	88.067220051556	0.123190717021
0	9653	88.190410768577	0.106694921548
0	9659	88.297105690125	0.006675149305
0	9661	88.30378083943	0.087987640738
0	9670	88.391768480168	0.024899120679
0	9675	88.416667600847	0.075635338123
0	9682	88.49230293897	0.025968018493
0	9688	88.518270957463	0.010694855488
0	9693	88.528965812951	0.209931427938
0	9699	88.738897240889	0.009574654408
0	9704	88.748471895297	0.122297010059
0	9709	88.870768905356	0.078865514636
0	9714	88.949634419992	0.067627897749
0	9721	89.017262317741	0.051929406262
0	9726	89.069191724003	0.02551137364
0	9731	89.094703097643	0.134221306287
0	9738	89.22892440393	0.005979347629
0	9740	89.234903751559	0.113063700686
0	9748	89.347967452245	0.001420691179
0	9750	89.349388143424	0.044196900126
0	9758	89.39358504355	0.059532364932
0	9763	89.453117408482	0.040161589995
0	9768	89.493278998477	0.039478511572
0	9773	89.532757510049	0.003571994824
0	9775	89.536329504873	0.026934185621
0	9783	89.563263690494	0.004764594719
0	9785	89.568028285213	0.001179473666
0	9787	89.569207758879	0.039062639643
0	9798	89.608270398522	0.087431510163
0	9804	89.695701908685	0.005650145965
0	9806	89.70135205465	0.0953079817
0	9815	89.79666003635	0.054421198145
0	9821	89.851081234495	0.04991860012
0	9826	89.900999834615	0.028532002309
0	9832	89.929531836924	0.033842537707
0	9837	89.963374374631	0.02860523501
0	9842	89.991979609641	0.015515155769
0	9847	90.00749476541	0.01399198641
0	9852	90.02148675182	0.117273016676
0	9859	90.138759768496	0.086064063488
0	9865	90.224823831984	0.033172883458
0	9872	90.257996715442	0.031583591212
0	9877	90.289580306654	0.005259169902
0	9879	90.294839476556	0.001766736393
0	9881	90.296606212949	0.019475445243
0	9892	90.316081658192	0.042264852982
0	9897	90.358346511174	0.017985415823
0	9902	90.376331926997	0.022543952183
0	9907	90.39887587918	0.110130860006
0	9914	90.509006739186	0.027727343757
0	9919	90.536734082943	0.086552485947
0	9926	90.62328656889	0.05430238572
0	9931	90.67758895461	0.002044725724
0	9933	90.679633680334	0.023973853928
0	9941	90.703607534262	0.055155158901
0	9946	90.758762693163	0.002892668551
0	9948	90.761655361714	0.216274261698
0	9956	90.977929623412	0.14677993271
0	9962	91.124709556122	0.007380639908
0	9964	91.13209019603	0.058120968984
0	9973	91.190211165014	0.030101777792
0	9978	91.220312942806	0.028505441727
0	9983	91.248818384533	0.076370469424
0	9989	91.325188853957	0.202157807467
0	9995	91.527346661424	0.022211313375
0	10000	91.549557974799	0.007719237584
0	10005	91.557277212383	0.064777719622
0	10010	91.622054932005	0.002793213054
0	10012	91.624848145059	0.001112336078
0	10014	91.625960481137	0.00810249828
0	10019	91.634062979417	0.020963899502
0	10031	91.655026878919	0.066112248264
0	10036	91.721139127183	0.005606035108
0	10038	91.726745162291	0.100720045597
0	10048	91.827465207888	0.138661251829
0	10054	91.966126459717	0.002525194678
0	10056	91.968651654395	0.11562542607
0	10066	92.084277080465	0.021666385267
0	10071	92.105943465732	0.033565925372
0	10076	92.139509391104	0.050554146342
0	10081	92.190063537446	0.017603744122
0	10086	92.207667281568	0.214134078538
0	10092	92.421801360106	0.023319699732
0	10097	92.445121059838	0.032000504366
0	10102	92.477121564204	0.010421849919
0	10107	92.487543414123	0.176980487505
0	10113	92.664523901628	0.091386921203
0	10121	92.755910822831	0.00839132583
0	10126	92.764302148661	0.064271145816
0	10133	92.828573294477	0.011752109665
0	10138	92.840325404142	0.061916892542
0	10144	92.902242296684	0.018163498404
0	10149	92.920405795088	0.012259047951
0	10154	92.932664843039	0.017912264779
0	10159	92.950577107818	0.026681349553
0	10164	92.977258457371	0.063394054661
0	10169	93.040652512032	0.144971101649
0	10176	93.185623613681	0.05021218217
0	10182	93.235835795851	0.015927133991
0	10187	93.251762929842	0.003398192733
0	10189	93.255161122575	0.044306588841
0	10197	93.299467711416	0.007132413745
0	10199	93.306600125161	0.033267274802
0	10207	93.339867399963	0.29518268733
0	10214	93.635050087293	0.001530658253
0	10216	93.636580745546	0.069013139027
0	10224	93.705593884573	0.023701581054
0	10230	93.729295465627	0.002216196568
0	10232	93.731511662195	0.016357997217
0	10241	93.747869659412	0.032730351323
0	10246	93.780600010735	0.066417813409
0	10251	93.847017824144	0.181482635605
0	10259	94.028500459749	0.023444295745
0	10264	94.051944755494	0.03640936524
0	10269	94.088354120734	0.000515074786
0	10271	94.08886919552	0.049650248727
0	10280	94.138519444247	0.031350010819
0	10285	94.169869455066	0.024385748836
0	10290	94.194255203902	0.028182474395
0	10296	94.222437678297	0.031508661441
0	10301	94.253946339738	0.022348030969
0	10306	94.276294370707	0.029451184904
0	10311	94.305745555611	0.027497366736
0	10316	94.333242922347	0.006145049339
0	10318	94.339387971686	0.049271077166
0	10327	94.388659048852	0.011535138047
0	10332	94.400194186899	0.08192079101
0	10337	94.482114977909	0.114973798942
0	10342	94.597088776851	0.139561749534
0	10347	94.736650526385	0.02954145461
0	10352	94.766191980995	0.00785290497
0	10357	94.774044885965	0.00895101261
0	10362	94.782995898575	0.016900472166
0	10368	94.799896370741	0.075936070802
0	10375	94.875832441543	0.020030513615
0	10380	94.895862955158	0.057873002087
0	10386	94.953735957245	0.008165292781
0	10391	94.961901250026	0.108325185088
0	10397	95.070226435114	0.045904684516
0	10402	95.11613111963	0.100779709604
0	10409	95.216910829234	0.075824199204
0	10414	95.292735028438	0.002958162551
0	10416	95.295693190989	0.042794955837
0	10424	95.338488146826	0.046145158367
0	10429	95.384633305193	0.003193114873
0	10431	95.387826420066	0.013720952067
0	10439	95.401547372133	0.017318067471
0	10444	95.418865439604	0.006981562195
0	10446	95.425847001799	0.047281778823
0	10454	95.473128780622	0.216843706636
0	10460	95.689972487258	0.00170857819
0	10462	95.691681065448	0.050819133993
0	10470	95.742500199441	0.004208046692
0	10472	95.746708246133	0.075257399169
0	10480	95.821965645302	0.040714264319
0	10485	95.862679909621	0.105131116063
0	10491	95.967811025684	4.3107555e-05
0	10493	95.967854133239	0.055233082575
0	10501	96.023087215814	0.08147665485
0	10506	96.104563870664	0.002631488076
0	10508	96.10719535874	0.042262989498
0	10516	96.149458348238	0.006985326109
0	10518	96.156443674347	0.018137508818
0	10526	96.174581183165	0.090502996752
0	10531	96.265084179917	0.015129184765
0	10536	96.280213364682	0.091790846636
0	10543	96.372004211318	0.031869098962
0	10549	96.40387331028	0.05047790751
0	10554	96.45435121779	0.153324514254
0	10562	96.607675732044	0.118182661589
0	10567	96.725858393633	0.008303356883
0	10572	96.734161750516	0.071563778551
0	10579	96.805725529067	0.151597843647
0	10586	96.957323372714	0.00105452534
0	10588	96.958377898054	0.122208381806
0	10597	97.08058627986	0.005630717965
0	10599	97.086216997825	0.052321096189
0	10607	97.138538094014	0.1757218806
0	10612	97.314259974614	0.109291192217
0	10618	97.423551166831	0.026511934389
0	10623	97.45006310122	0.022422972402
0	10628	97.472486073622	0.105640688919
0	10634	97.578126762541	0.005856137666
0	10636	97.583982900207	0.099255327904
0	10646	97.683238228111	0.022004550523
0	10651	97.705242778634	0.04223050824
0	10656	97.747473286874	0.021401908277
0	10661	97.768875195151	0.035410299863
0	10666	97.804285495014	0.016927366709
0	10671	97.821212861723	0.020398148956
0	10676	97.841611010679	0.038600472091
0	10681	97.88021148277	0.01516330429
0	10686	97.89537478706	0.060458638424
0	10692	97.955833425484	0.112509571731
0	10698	98.068342997215	0.119051772942
0	10703	98.187394770157	0.002195404044
0	10705	98.189590174201	0.015479542484
0	10713	98.205069716685	0.012461080609
0	10718	98.217530797294	0.020393308316
0	10723	98.23792410561	0.02152322975
0	10728	98.25944733536	0.02293411338
0	10733	98.28238144874	0.026243233783
0	10738	98.308624682523	0.074761822441
0	10744	98.383386504964	0.02681422837
0	10750	98.410200733334	0.012525192575
0	10755	98.422725925909	0.001924055833
0	10757	98.424649981742	0.12750859601
0	10765	98.552158577752	0.037812061921
0	10770	98.589970639673	0.042752618086
0	10776	98.632723257759	0.126415438198
0	10785	98.759138695957	0.017372147144
0	10790	98.776510843101	0.088193665277
0	10797	98.864704508378	0.038562994063
0	10802	98.903267502441	0.044276784113
0	10807	98.947544286554	0.064434356158
0	10812	99.011978642712	0.062074902177
0	10818	99.074053544889	0.025513989315
0	10823	99.099567534204	0.049175650154
0	10829	99.148743184358	0.097502951711
0	10834	99.246246136069	0.044220713229
0	10839	99.290466849298	0.045065908776
0	10844	99.335532758074	0.149789016268
0	10849	99.485321774342	0.01429055422
0	10855	99.499612328562	0.001390021835
0	10857	99.501002350397	0.004886538997
0	10859	99.505888889394	0.140042703085
0	10870	99.645931592479	0.116428940356
0	10875	99.762360532835	0.080402494747
0	10882	99.842763027582	0.029436213034
0	10887	99.872199240616	0.030100020845
0	10893	99.902299261461	0.184740866036
0	10901	100.087040127497	0.20702071437
0	10907	100.294060841867	0.046797248973
0	10913	100.34085809084	0.166754038721
0	10921	100.507612129561	0.05806732893
0	10926	100.565679458491	0.156163470868
0	10932	100.721842929359	0.032770128218
0	10937	100.754613057577	0.025251199562
0	10943	100.779864257139	0.07251941394
0	10948	100.852383671079	0.01137095351
0	10953	100.863754624589	0.069212325147
0	10960	100.932966949736	0.092632688236
0	10965	101.025599637972	0.069794403457
0	10971	101.095394041429	0.017828691622
0	10976	101.113222733051	0.093182802726
0	10981	101.206405535777	0.00883080332
0	10986	101.215236339097	0.041810661403
0	10992	101.2570470005	0.046872380301
0	10997	101.303919380801	0.0787538525
0	11002	101.382673233301	0.050288971504
0	11007	101.432962204805	0.037145150178
0	11013	101.470107354983	0.059612645164
0	11019	101.529720000147	0.04680768311
0	11025	101.576527683257	0.032439584089
0	11030	101.608967267346	0.069974848903
0	11036	101.678942116249	0.047193235304
0	11041	101.726135351553	0.384413110864
0	11048	102.110548462417	0.281731455316
0	11055	102.392279917733	0.102953334842
0	11061	102.495233252575	0.026901215919
0	11066	102.522134468494	0.124693117188
0	11071	102.646827585682	0.011227414178
0	11076	102.65805499986	7.4987379e-05
0	11078	102.658129987239	0.008155580675
0	11080	102.666285567914	0.046475126193
0	11093	102.712760694107	0.014664783939
0	11098	102.727425478046	0.013382851318
0	11103	102.740808329364	0.124201475865
0	11108	102.865009805229	0.064365853105
0	11114	102.929375658334	0.021767595016
0	11119	102.95114325335	0.03478772169
0	11124	102.98593097504	0.006517272666
0	11126	102.992448247706	0.014491248586
0	11134	103.006939496292	0.055621226112
0	11140	103.062560722404	0.024881056375
0	11145	103.087441778779	0.069155382026
0	11150	103.156597160805	0.263451519176
0	11158	103.420048679981	0.00733736809
0	11160	103.427386048071	0.019353225074
0	11168	103.446739273145	0.002664538621
0	11170	103.449403811766	0.007397437627
0	11175	103.456801249393	0.084264529665
0	11184	103.541065779058	0.030355004032
0	11190	103.57142078309	0.063800675889
0	11196	103.635221458979	0.014967030602
0	11201	103.650188489581	0.019792374296
0	11206	103.669980863877	0.027980464032
0	11211	103.697961327909	0.022802754384
0	11216	103.720764082293	0.002377325884
0	11218	103.723141408177	0.030136913685
0	11226	103.753278321862	0.006302032556
0	11228	103.759580354418	0.111723702262
0	11236	103.87130405668	0.015888337788
0	11241	103.887192394468	0.041742751316
0	11246	103.928935145784	0.130262146328
0	11252	104.059197292112	0.003699299496
0	11254	104.062896591608	0.04483860363
0	11262	104.107735195238	0.042876268721
0	11267	104.150611463959	0.014102298704
0	11272	104.164713762663	0.022996904175
0	11277	104.187710666838	0.026264522764
0	11283	104.213975189602	0.033726313776
0	11288	104.247701503378	0.074824405525
0	11293	104.322525908903	0.026692271246
0	11298	104.349218180149	0.050620516638
0	11303	104.399838696787	0.026278825453
0	11309	104.42611752224	0.057701908356
0	11315	104.483819430596	0.029435179447
0	11320	104.513254610043	0.047462723671
0	11326	104.560717333714	0.04006330072
0	11331	104.600780634434	0.039555430966
0	11336	104.6403360654	0.01110993095
0	11341	104.65144599635	0.141514053509
0	11346	104.792960049859	0.052728618058
0	11351	104.845688667917	0.021397060226
0	11356	104.867085728143	0.077064506206
0	11363	104.944150234349	0.015479803415
0	11368	104.959630037764	0.092008013298
0	11373	105.051638051062	0.086064616871
0	11380	105.137702667933	0.006484305465
0	11382	105.144186973398	0.042561866732
0	11390	105.18674884013	0.118900999586
0	11396	105.305649839716	0.075227359714
0	11401	105.38087719943	0.008797249219
0	11406	105.389674448649	0.051295445647
0	11411	105.440969894296	0.059273586131
0	11417	105.500243480427	0.002359131671
0	11419	105.502602612098	0.005858562475
0	11421	105.508461174573	0.009247666671
0	11429	105.517708841244	0.032075866489
0	11438	105.549784707733	0.021251551925
0	11443	105.571036259658	0.036629885371
0	11449	105.607666145029	0.233232892801
0	11456	105.84089903783	0.079457236851
0	11461	105.920356274681	0.071737199034
0	11466	105.992093473715	0.004067632922
0	11468	105.996161106637	0.036411562137
0	11477	106.032572668774	0.012051969294
0	11482	106.044624638068	0.036018836759
0	11487	106.080643474827	0.052432584796
0	11492	106.133076059623	0.06753613919
0	11497	106.200612198813	0.001112721738
0	11499	106.201724920551	0.043710991798
0	11507	106.245435912349	0.01918173921
0	11512	106.264617651559	0.032504534435
0	11517	106.297122185994	0.063967575718
0	11522	106.361089761712	0.016104394813
0	11527	106.377194156525	0.06137830623
0	11532	106.438572462755	0.081873971201
0	11537	106.520446433956	0.047243419182
0	11542	106.567689853138	0.019304260889
0	11547	106.586994114027	0.048993149551
0	11552	106.635987263578	0.031228657243
0	11557	106.667215920821	0.013587652672
0	11562	106.680803573493	0.034869892664
0	11567	106.715673466157	0.007305647207
0	11569	106.722979113364	0.015893902522
0	11578	106.738873015886	0.088978326274
0	11584	106.82785134216	0.091910302925
0	11591	106.919761645085	0.062954636868
0	11596	106.982716281953	0.06924792623
0	11602	107.051964208183	0.129453096773
0	11609	107.181417304956	0.121777493414
0	11614	107.30319479837	0.09741122375
0	11619	107.40060602212	0.038959214413
0	11624	107.439565236533	0.037316724365
0	11630	107.476881960898	0.007212998132
0	11632	107.48409495903	0.027217657593
0	11640	107.511312616623	0.05178023846
0	11646	107.563092855083	0.00615127388
0	11648	107.569244128963	0.048894895994
0	11657	107.618139024957	0.011214421887
0	11663	107.629353446844	0.019413175021
0	11668	107.648766621865	0.016263538889
0	11674	107.665030160754	0.022065351299
0	11679	107.687095512053	0.060339990565
0	11684	107.747435502618	0.027997700243
0	11689	107.775433202861	0.011010766861
0	11694	107.786443969722	0.013753401361
0	11699	107.800197371083	0.064206831619
0	11704	107.864404202702	0.000370802397
0	11706	107.864775005099	0.020427881726
0	11714	107.885202886825	0.010216689166
0	11719	107.895419575991	0.074059091269
0	11724	107.96947866726	0.008161133203
0	11729	107.977639800463	0.015276217369
0	11734	107.992916017832	0.049335703806
0	11739	108.042251721638	0.118857988716
0	11745	108.161109710354	0.098598602524
0	11750	108.259708312878	0.036858398958
0	11755	108.296566711836	0.0411836077
0	11760	108.337750319536	0.012137158595
0	11765	108.349887478131	0.158505137429
0	11771	108.50839261556	0.051683617552
0	11776	108.560076233112	0.060808000333
0	11782	108.620884233445	0.086010952751
0	11788	108.706895186196	0.084094731373
0	11796	108.790989917569	0.036685555758
0	11801	108.827675473327	0.005349206191
0	11803	108.833024679518	0.052102868917
0	11811	108.885127548435	0.13804927679
0	11816	109.023176825225	0.01026386414
0	11821	109.033440689365	0.055200805179
0	11826	109.088641494544	0.011712968959
0	11831	109.100354463503	0.031822562793
0	11836	109.132177026296	0.04824020533
0	11841	109.180417231626	0.015191131949
0	11846	109.195608363575	0.22419004395
0	11853	109.419798407525	0.005851090961
0	11855	109.425649498486	0.007427280036
0	11861	109.433076778522	0.023083544434
0	11869	109.456160322956	0.004767547282
0	11871	109.460927870238	0.022408973815
0	11879	109.483336844053	0.063405821581
0	11886	109.546742665634	0.112054969987
0	11892	109.658797635621	0.114070606899
0	11898	109.77286824252	0.013805875175
0	11903	109.786674117695	0.031340707317
0	11908	109.818014825012	0.006146740761
0	11910	109.824161565773	0.009686429455
0	11918	109.833847995228	0.046869280585
0	11923	109.880717275813	0.164326299553
0	11928	110.045043575366	0.033401629722
0	11933	110.078445205088	0.036862539737
0	11938	110.115307744825	0.019555626916
0	11943	110.134863371741	0.036982424245
0	11949	110.171845795986	0.012873287259
0	11954	110.184719083245	0.053984256911
0	11959	110.238703340156	0.004641946906
0	11961	110.243345287062	0.037204452891
0	11970	110.280549739953	0.083620137071
0	11975	110.364169877024	0.017694758175
0	11980	110.381864635199	0.034590842111
0	11985	110.41645547731	0.040965494029
0	11990	110.457420971339	0.140641478629
0	11995	110.598062449968	0.246860998129
0	12002	110.844923448097	0.00662433835
0	12004	110.851547786447	0.074945347514
0	12012	110.926493133961	0.040733133563
0	12017	110.967226267524	0.004496209515
0	12019	110.971722477039	0.135217900583
[...]
19	28458	261.63165931637	1.7541727069105
19	28627	263.38583202328	1.6824430055737
19	28844	265.068275028854	0.26272136198469
19	28877	265.330996390839	0.74589300013793
19	28980	266.076889390977	1.4970353313948
19	29126	267.573924722372	0.10836362218108
19	29133	267.682288344553	0.93872747054194
19	29235	268.621015815095	0.16533804013716
19	29268	268.786353855232	0.80932039240634
19	29366	269.595674247638	4.4088175821076
19	29865	274.004491829746	0.10553030074023
19	29867	274.110022130486	2.5529999151932
19	30114	276.663022045679	0.38559255670033
19	30183	277.048614602379	3.9600353216726
19	30576	281.008649924052	0.59044705645261
19	30631	281.599096980505	2.2745851999447
19	30920	283.87368218045	0.18723334945257
19	30936	284.060915529903	6.6500210045428
19	31589	290.710936534446	2.4040725506354
19	31873	293.115009085081	0.10971156634182
19	31894	293.224720651423	4.3180170896966
19	32416	297.54273774112	7.9825319471376
19	33386	305.525269688258	0.63958425920582
19	33452	306.164853947464	2.3950678992328
19	33696	308.559921846697	3.5552882642786
19	34049	312.115210110976	4.9192072398599
19	34508	317.034417350836	0.87669295827286
19	34579	317.911110309109	4.705792987367
19	35157	322.616903296476	2.1650867144684
19	35381	324.781990010944	0.75748742753522
19	35446	325.539477438479	0.67080759315923
19	35498	326.210285031638	2.4630610920374
19	35731	328.673346123675	0.70538223341553
19	35805	329.378728357091	0.81437936951104
19	35866	330.193107726602	0.80042667281419
19	35925	330.993534399416	0.37261705749994
19	35972	331.366151456916	0.31377695284932
19	36032	331.679928409765	3.2554399062196
19	36335	334.935368315985	2.9046624663301
19	36627	337.840030782315	1.2952730679621
19	36738	339.135303850277	2.6178745361152
19	37022	341.753178386392	2.5568234713353
19	37321	344.310001857727	2.1786165972931
19	37579	346.48861845502	0.6456056980659
19	37625	347.134224153086	0.23950397899673
19	37652	347.373728132083	0.70987078451852
19	37707	348.083598916602	2.9759101305362
19	38011	351.059509047138	0.053373304121674
19	38017	351.11288235126	0.17637977494697
19	38028	351.289262126207	0.84188352173562
19	38106	352.131145647943	0.23516030449782
19	38132	352.366305952441	1.0966844460918
19	38278	353.462990398533	5.7163990466603
19	38928	359.179389445193	0.13165919367908
19	38935	359.311048638872	0.081035524470451
19	38952	359.392084163342	0.2774670078504
19	38996	359.669551171192	0.89287633998164
19	39089	360.562427511174	0.015997427124357
19	39090	360.578424938298	1.1861823159343
19	39164	361.764607254232	1.6811727358201
19	39345	363.445779990052	1.2215983241633
19	39534	364.667378314215	0.25810145619576
19	39559	364.925479770411	2.9269387167896
19	39900	367.852418487201	0.92669930743423
19	39968	368.779117794635	2.7875975162342
19	40191	371.566715310869	0.62691661032024
19	40252	372.193631921189	0.72844931958998
19	40323	372.922081240779	0.67743723134634
19	40396	373.599518472125	1.8667395681594
19	40626	375.466258040284	0.64639645785683
19	40707	376.112654498141	5.1426824241558
19	41246	381.255336922297	1.7489074234186
19	41453	383.004244345716	3.6674054975316
19	41888	386.671649843248	1.9282631503061
19	42113	388.599912993554	3.140810058102
19	42354	391.740723051656	1.8144005351263
19	42582	393.555123586782	4.0534903278419
19	43035	397.608613914624	0.17878923023929
19	43061	397.787403144863	0.43846162552001
19	43137	398.225864770383	0.62334661416178
19	43241	398.849211384545	2.2825860691856
20	1779	15.046965259633	2.714852459819
20	2092	17.761817719452	1.4516101566436
20	2290	19.213427876096	0.10189841725431
20	2299	19.31532629335	0.67936921304165
20	2383	19.994695506392	0.94418318320092
20	2484	20.938878689593	3.9940940993079
20	2809	24.932972788901	0.072528964881973
20	2818	25.005501753783	0.55968624323603
20	2855	25.565187997019	2.0671660075892
20	3094	27.632354004608	0.35665858738451
20	3126	27.989012591993	1.8774008440694
20	3288	29.866413436062	2.9592248603871
20	3664	32.825638296449	0.09019748160118
20	3672	32.91583577805	3.5406436153106
20	4081	36.456479393361	1.0141902712377
20	4164	37.470669664599	1.8279789222875
20	4374	39.298648586887	4.3696205300274
20	4792	43.668269116914	2.4414428529971
20	5115	46.109711969911	0.59597697556251
20	5151	46.705688945474	5.6565217712743
20	5747	52.362210716748	0.56164050067081
20	5798	52.923851217419	0.30275107554624
20	5847	53.226602292965	1.7241654014674
20	6046	54.950767694432	0.19011659700994
20	6078	55.140884291442	2.2813158204767
20	6332	57.422200111919	2.5937637600861
20	6588	60.015963872005	0.26429602792999
20	6610	60.280259899935	1.7561714763945
20	6784	62.036431376329	2.4573370210061
20	7003	64.493768397335	4.5421134310652
20	7493	69.0358818284	4.345321246575
20	7973	73.381203074975	0.1766815419653
20	8000	73.55788461694	6.3082612953355
20	8694	79.866145912275	1.2791264488633
20	8843	81.145272361138	0.40174443002134
20	8887	81.547016791159	0.89503263218714
20	8987	82.442049423346	0.0099410742746205
20	8991	82.451990497621	2.3421312891336
20	9229	84.794121786755	2.2773251030783
20	9527	87.071446889833	1.5666562274527
20	9698	88.638103117286	1.2881204935468
20	9831	89.926223610833	0.2997751253485
20	9867	90.225998736181	1.5749500715048
20	10046	91.800948807686	2.9988064743658
20	10367	94.799755282052	1.5273384956782
20	10541	96.32709377773	1.187835471908
20	10633	97.514929249638	7.7363554659939
20	11395	105.251284715632	0.27597809013102
20	11434	105.527262805763	1.3238106530365
20	11589	106.8510734588	1.2658153665648
20	11744	108.116888825365	1.3805971862873
20	11884	109.497486011652	4.9630477151132
20	12448	114.460533726765	2.9965801861511
20	12808	117.457113912916	1.1592218148736
20	12913	118.61633572779	4.8082835726536
20	13565	123.424619300444	0.31073350435811
20	13590	123.735352804802	3.4899242190465
20	13904	127.225277023849	2.1536843176828
20	14145	129.378961341532	0.28770657973302
20	14195	129.666667921265	0.7177076084315
20	14283	130.384375529696	0.65819365732331
20	14353	131.042569187019	3.11705884414
20	14751	134.159628031159	0.17887224734737
20	14769	134.338500278506	2.7150359424883
20	15046	137.053536220994	1.025297141671
20	15136	138.078833362665	3.0911860425283
20	15466	141.170019405193	1.2929555930241
20	15604	142.462974998217	2.5345901833605
20	15940	144.997565181578	0.45075824057725
20	15988	145.448323422155	1.7264303377015
20	16158	147.174753759857	0.41349330333258
20	16208	147.58824706319	0.98412439904021
20	16289	148.57237146223	1.4989080683852
20	16444	150.071279530615	2.1630846413257
20	16664	152.234364171941	0.74139122382738
20	16741	152.975755395768	2.3190943115744
20	16992	155.294849707342	3.9188053639776
20	17384	159.21365507132	1.4175520964693
20	17554	160.631207167789	6.3706141504394
20	18189	167.001821318228	0.40800074199071
20	18242	167.409822060219	0.070591181479926
20	18249	167.480413241699	0.7542457277686
20	18312	168.234658969468	2.5560609036882
20	18637	170.790719873156	1.1450712992824
20	18782	171.935791172438	3.3502998826958
20	19103	175.286091055134	2.2445792663033
20	19366	177.530670321437	0.28268213199535
20	19395	177.813352453432	2.3805780431533
20	19672	180.193930496585	0.72196413357699
20	19744	180.915894630162	1.7717300023535
20	19920	182.687624632516	1.2402589802126
20	20054	183.927883612729	0.60856655003621
20	20111	184.536450162765	3.8230546490463
20	20567	188.359504811811	3.5712469073457
20	20901	191.930751719157	0.16068872419773
20	20927	192.091440443355	0.66135802665484
20	21006	192.75279847001	0.1980095357073
20	21040	192.950808005717	3.900236646209
20	21486	196.851044651926	0.45401566667393
20	21539	197.3050603186	1.829430778858
20	21743	199.134491097458	2.0657643054576
20	21952	201.200255402916	2.3458858434182
20	22188	203.546141246334	4.8033824878414
20	22715	208.349523734175	0.55861342806851
20	22753	208.908137162244	1.0088430944357
20	22843	209.91698025668	3.6744464968017
20	23265	213.591426753482	1.4611633161003
20	23432	215.052590069582	2.262259907349
20	23702	217.314849976931	1.8849673389091
20	23855	219.19981731584	0.24084219460657
20	23857	219.440659510447	4.9823607533103
20	24301	224.423020263757	0.1760030090222
20	24342	224.599023272779	3.8885646326109
20	24777	228.48758790539	5.1676465491156
20	25347	233.655234454506	0.10444019177878
20	25354	233.759674646285	5.9005442560623
20	26079	239.660218902347	0.25583292352458
20	26123	239.916051825872	3.9650666470533
20	26588	243.881118472925	0.93767315905237
20	26711	244.818791631977	2.1419943054587
20	26958	246.960785937436	2.7344439136698
20	27204	249.695229851106	1.0421600462234
20	27322	250.737389897329	1.7468703344224
20	27470	252.484260231751	0.68478546756248
20	27534	253.169045699313	1.0195690017404
20	27654	254.188614701053	0.68684449473418
20	27745	254.875459195787	1.0650198395481
20	27872	255.940479035335	1.3202875970074
20	27972	257.260766632342	2.2588427521266
20	28220	259.519609384469	0.4452509620158
20	28273	259.964860346485	0.30071804249322
20	28304	260.265578388978	2.6506931881992
20	28587	262.916271577177	4.1567745633185
20	29082	267.073046140496	0.0027241433447569
20	29083	267.075770283841	3.375446948399
20	29451	270.45121723224	6.2158274065552
20	30115	276.667044638795	1.7940948038038
20	30287	278.461139442599	7.2345873462118
20	31082	285.695726788811	5.4067769955173
20	31645	291.102503784328	4.8936152093699
20	32198	295.996118993698	0.95719297360364
20	32308	296.953311967302	0.43813034451541
20	32373	297.391442311817	0.4969863443913
20	32451	297.888428656208	2.6389076930459
20	32784	300.527336349254	3.3251472954635
20	33163	303.852483644717	1.5740616296103
20	33368	305.426545274327	0.083644242717193
20	33380	305.510189517044	1.3771435639213
20	33519	306.887333080965	1.2831795700918
20	33654	308.170512651057	1.397769919825
20	33812	309.568282570882	0.60180825834908
20	33880	310.170090829231	2.832046495255
20	34110	313.002137324486	1.9715348261034
20	34276	314.973672150589	0.61799769295449
20	34333	315.591669843543	1.1217254826227
20	34466	316.713395326166	0.64262789291475
20	34516	317.356023219081	1.2178663400591
20	34653	318.57388955914	0.19909556656784
20	34675	318.772985125708	0.8200114612798
20	34789	319.592996586988	1.7652080055062
20	34976	321.358204592494	1.5556887151825
20	35188	322.913893307676	0.89977001564184
20	35280	323.813663323318	1.5836021983291
20	35437	325.397265521647	0.99968210522887
20	35504	326.396947626876	1.6268785640038
20	35668	328.02382619088	0.13876598786825
20	35676	328.162592178748	2.6778610517705
20	35915	330.840453230518	2.6752591876526
20	36236	333.515712418171	1.2910849531395
20	36317	334.806797371311	0.78178917812261
20	36395	335.588586549434	2.8752958175909
20	36676	338.463882367025	0.15675210101568
20	36695	338.620634468041	3.3145816046459
20	37039	341.935216072687	1.4958073741673
20	37195	343.431023446854	2.2228781180372
20	37474	345.653901564891	2.2618556607126
20	37696	347.915757225604	2.1330610839048
20	37901	350.048818309509	0.55572434228104
20	37949	350.60454265179	0.86511564711564
20	38038	351.469658298906	0.99511794979846
20	38162	352.464776248704	0.7090815333361
20	38254	353.17385778204	0.88908135471656
20	38352	354.062939136757	0.24728577266902
20	38380	354.310224909426	2.1851511666177
20	38615	356.495376076044	0.21400811691108
20	38638	356.709384192955	2.0463623426979
20	38877	358.755746535653	0.51881518919154
20	38931	359.274561724845	3.3463321038544
20	39260	362.620893828699	0.26674278020881
20	39285	362.887636608908	0.82684456157385
20	39410	363.714481170482	0.62216069321714
20	39496	364.336641863699	0.75413013052199
20	39579	365.090771994221	1.4443917632257
20	39764	366.535163757447	0.12114020182869
20	39795	366.656303959276	0.40954305886754
20	39837	367.065847018144	1.2869671065094
20	39951	368.352814124653	4.6328892325649
20	40324	372.985703357218	0.73131549702225
20	40413	373.71701885424	0.78640368133797
20	40503	374.503422535578	2.1529515939556
20	40772	376.656374129534	1.0006975152866
20	40863	377.657071644821	0.51764284225244
20	40916	378.174714487073	2.1832855283406
20	41159	380.358000015414	0.22693424627509
20	41177	380.584934261689	0.78395730434703
20	41259	381.368891566036	1.7191950421212
20	41470	383.088086608157	0.77877019374932
20	41551	383.866856801906	3.0248880635704
20	41905	386.891744865476	6.7767493081435
20	42608	393.66849417362	4.5015943684719
20	43130	398.170088542092	0.018062692058954
20	43133	398.188151234151	5.6078598924992
21	2157	18.207382830052	0.83796683503561
21	2274	19.045349665088	2.3503630834056
21	2527	21.395712748494	0.60295403028552
21	2586	21.99866677878	2.1384545323446
21	2766	24.137121311125	1.8966718404835
21	2930	26.033793151609	0.83100643546485
21	3009	26.864799587074	3.221724540733
21	3306	30.086524127807	0.29384077843004
21	3348	30.380364906237	0.022503952262978
21	3349	30.4028688585	2.7326012610442
21	3688	33.135470119544	2.7350208152856
21	4012	35.87049093483	0.017981696180084
21	4018	35.88847263101	2.343340530202
21	4229	38.231813161212	0.86027968271338
21	4347	39.092092843925	1.1588378116327
21	4463	40.250930655558	1.1041864088384
21	4561	41.355117064396	1.0535216246188
21	4639	42.408638689015	0.9296109475458
21	4759	43.338249636561	0.77985166770079
21	4858	44.118101304262	3.9850248620418
21	5266	48.103126166304	1.3304695041438
21	5386	49.433595670448	1.3170543608646
21	5561	50.750650031313	1.3209779617502
21	5708	52.071627993063	1.9605551050367
21	5917	54.0321830981	2.7329177054485
21	6260	56.765100803549	5.7124041706832
21	6821	62.477504974232	1.3976149349897
21	6964	63.875119909222	0.69719878905805
21	7019	64.57231869828	1.2803958443173
21	7164	65.852714542597	0.39765505301817
21	7203	66.250369595615	4.1115773848584
21	7644	70.361946980473	0.69002201319896
21	7729	71.051968993672	1.8655632284563
21	7919	72.917532222128	1.6983492524573
21	8120	74.615881474585	3.5196404557345
21	8488	78.135521930319	6.6966550255405
21	9230	84.832176955859	0.84065164392633
21	9329	85.672828599785	1.6120032568089
21	9538	87.284831856594	0.015236337921894
21	9540	87.300068194516	5.819408777833
21	10175	93.119476972349	0.59938331215424
21	10229	93.718860284503	0.66345227498986
21	10326	94.382312559493	0.56532732455583
21	10385	94.947639884049	0.23412450053563
21	10407	95.181764384585	4.6217519862045
21	10880	99.80351637079	0.69891013307771
21	10920	100.502426503868	8.2104988930762
21	11790	108.712925396944	1.9174534722536
21	12000	110.630378869198	1.4227080525966
21	12156	112.053086921795	5.7386472989025
21	12832	117.791734220697	0.48385259183472
21	12879	118.275586812532	0.57190699741959
21	12952	118.847493809952	0.72762764880837
21	13067	119.57512145876	6.0732898729519
21	13764	125.648411331712	1.7398061247676
21	13924	127.38821745648	6.6490077930013
21	14729	134.037225249481	2.8234924307404
21	15019	136.860717680221	6.0783502002004
21	15652	142.939067880421	3.2776994520255
21	16039	146.216767332447	0.24123614146587
21	16081	146.458003473913	0.61688094152862
21	16152	147.074884415442	4.0790313492932
21	16562	151.153915764735	0.93614595789408
21	16643	152.090061722629	0.16986071060515
21	16665	152.259922433234	0.77327626722689
21	16742	153.033198700461	0.23161679385054
21	16760	153.264815494312	2.7500853697233
21	17044	156.014900864035	1.6939495968735
21	17214	157.708850460909	5.2219880131344
21	17757	162.930838474043	2.0369905646766
21	17971	164.96782903872	1.0357325971605
21	18072	166.003561635881	1.7781905766254
21	18289	167.781752212506	3.9341430719885
21	18754	171.715895284495	2.5471604844472
21	19012	174.263055768942	0.83017150443525
21	19080	175.093227273377	1.9927261844425
21	19344	177.08595345782	3.988919981899
21	19785	181.074873439719	2.3485632630555
21	20008	183.423436702775	0.49966239772885
21	20053	183.923099100504	6.1584670645776
21	20706	190.081566165082	1.0983459859369
21	20826	191.179912151019	3.796244215638
21	21273	194.976156366657	0.16969588495838
21	21285	195.145852251615	0.9614254486551
21	21416	196.10727770027	1.6298336555668
21	21593	197.737111355837	0.1929512065092
21	21616	197.930062562346	2.8988399247283
21	21909	200.828902487074	0.22069490617212
21	21925	201.049597393246	4.2226177166993
21	22395	205.272215109945	0.032372988660032
21	22396	205.304588098605	2.7583270726388
21	22687	208.062915171244	0.55798859481188
21	22735	208.620903766056	3.0660524011684
21	23048	211.686956167224	0.96906690127967
21	23155	212.656023068504	1.0919708445136
21	23286	213.747993913018	3.2791128304501
21	23673	217.027106743468	2.7269333527543
21	23874	219.754040096222	0.45522626687166
21	23906	220.209266363094	1.9228426643963
21	24055	222.13210902749	1.3924559612657
21	24232	223.524564988756	1.173770398384
21	24348	224.69833538714	0.067261112599129
21	24355	224.765596499739	4.5885572344382
21	24846	229.354153734177	2.1841294203805
21	25096	231.538283154557	1.8264443100358
21	25308	233.364727464593	5.6347138384076
21	26007	238.999441303001	0.73375198685976
21	26090	239.733193289861	0.3141309175103
21	26139	240.047324207371	0.70999953472261
21	26255	240.757323742094	8.8355525053885
21	27198	249.592876247482	0.48105790043171
21	27246	250.073934147914	1.0937635158937
21	27340	251.167697663808	0.77938818524452
21	27414	251.947085849053	5.499561360436
21	27999	257.446647209489	0.25332617153122
21	28013	257.69997338102	1.2934425548084
21	28144	258.993415935828	1.6323060506858
21	28366	260.625721986514	1.8878712058078
21	28556	262.513593192322	1.8446030353268
21	28760	264.358196227649	2.0554972631183
21	29014	266.413693490767	2.4729014639748
21	29291	268.886594954742	0.57677891190239
21	29345	269.463373866644	0.15407130417418
21	29368	269.617445170818	4.823513904416
21	29911	274.440959075234	2.8292288946141
21	30201	277.270187969848	0.64163668425424
21	30225	277.911824654102	1.0519107296302
21	30328	278.963735383732	0.10034648128953
21	30360	279.064081865022	1.5500408569164
21	30511	280.614122721938	1.024978461562
21	30639	281.6391011835	1.7745748897273
21	30880	283.413676073227	0.77498348343064
21	30948	284.188659556658	0.92859062359843
21	31037	285.117250180256	0.51596090348485
21	31070	285.633211083741	4.9639735413128
21	31581	290.597184625054	5.2645580957793
21	32180	295.861742720833	1.5233359414185
21	32372	297.385078662252	0.74509312911299
21	32487	298.130171791365	0.67055191135231
21	32611	298.800723702717	7.2896605359862
21	33446	306.090384238703	0.41535552989647
21	33492	306.505739768599	1.3344299244284
21	33635	307.840169693027	0.27929923435322
21	33650	308.11946892738	3.0056383611782
21	33945	311.125107288558	3.4676863902974
21	34253	314.592793678855	0.98660197121901
21	34332	315.579395650074	6.1066837776907
21	35031	321.686079427765	5.4319372898631
21	35560	327.118016717628	0.21849073666063
21	35581	327.336507454289	3.6326416004097
21	35919	330.969149054699	5.5619237475565
21	36486	336.531072802255	2.0198166671399
21	36683	338.550889469395	0.67677362397887
21	36754	339.227663093374	3.8490740551184
21	37138	343.076737148492	0.89735558652193
21	37288	343.974092735014	1.0679157013772
21	37435	345.042008436391	0.29791884727829
21	37457	345.339927283669	3.4870471427066
21	37752	348.826974426376	0.16649301051811
21	37774	348.993467436894	1.511730417115
21	37946	350.505197854009	1.7707484714354
21	38123	352.275946325444	1.8721589318029
21	38358	354.148105257247	0.50281098391925
21	38449	354.650916241166	0.80561480646308
21	38515	355.456531047629	1.997998978446
21	38729	357.454530026075	2.2144984142276
21	38995	359.669028440303	5.238413227771
21	39556	364.907441668074	0.1373013953207
21	39578	365.044743063395	2.8480729746183
21	39908	367.892816038013	5.4237149608205
21	40368	373.316530998834	1.0878986267127
21	40491	374.404429625547	0.51689165746699
21	40562	374.921321283014	0.076116262142055
21	40568	374.997437545156	0.051885197625989
21	40569	375.049322742782	3.8957332647334
21	41011	378.945056007515	5.8103318249344
21	41657	384.755387832449	3.3207355387766
21	42074	388.076123371226	1.0501999742862
21	42145	389.126323345512	1.3442884988737
21	42259	390.470611844386	0.67190178562246
21	42319	391.142513630008	0.56875479922407
21	42351	391.711268429232	2.80538756486
21	42713	394.516655994092	1.3093308636453
21	42881	395.825986857737	9.0652513897203

