version 2
run Nonmonitoring-exponential-598-20210224-17:49:34-27108
attr configname Nonmonitoring-exponential
attr datetime 20210224-17:49:34
attr experiment Nonmonitoring-exponential
attr inifile aerocom.ini
attr iterationvars $0=50
attr iterationvarsf 50-
attr measurement $0=50
attr network Aerocom
attr processid 27108
attr repetition 98
attr replication #98
attr resultdir results
attr runnumber 598
attr seedset 98
param **.t 2s
param **.k 50ms
param **.X 0.05s
param **.m 1s
param **.tDistribution "\"exponential\""
param **.operationMode 1
param **.s "70 byte"
param **.dimPoolMax 10000
param **.dimPoolMin 8000
param **.nDL 16
param **.nA 1
param **.DLMaxCapacity 0
param **.trasmitting false

vector 0 Aerocom.aircraft[0].packetGenerator arrivalTime:vector ETV
attr "" ""
attr source computeArrivalTime
vector 1 Aerocom.aircraft[0].linkSelector waitingTime:vector ETV
attr "" ""
attr source computeWaitingTime
vector 2 Aerocom.aircraft[0].linkSelector queueLength:vector ETV
attr "" ""
attr source computeQueueLength
vector 3 Aerocom.aircraft[0].dataLink[1] actualCapacity:vector ETV
attr "" ""
attr source computeActualCapacity
vector 4 Aerocom.aircraft[0].linkSelector serviceTime:vector ETV
attr "" ""
attr source computeServiceTime
vector 5 Aerocom.aircraft[0].linkSelector responseTime:vector ETV
attr "" ""
attr source computeResponseTime
vector 6 Aerocom.aircraft[0].dataLink[8] tDistribution:vector ETV
attr "" ""
attr source computeTDistribution
vector 7 Aerocom.aircraft[0].dataLink[0] tDistribution:vector ETV
attr "" ""
attr source computeTDistribution
vector 8 Aerocom.aircraft[0].dataLink[12] tDistribution:vector ETV
attr "" ""
attr source computeTDistribution
vector 9 Aerocom.aircraft[0].dataLink[15] tDistribution:vector ETV
attr "" ""
attr source computeTDistribution
vector 10 Aerocom.aircraft[0].dataLink[10] tDistribution:vector ETV
attr "" ""
attr source computeTDistribution
vector 11 Aerocom.aircraft[0].dataLink[9] tDistribution:vector ETV
attr "" ""
attr source computeTDistribution
vector 12 Aerocom.aircraft[0].dataLink[7] tDistribution:vector ETV
attr "" ""
attr source computeTDistribution
vector 13 Aerocom.aircraft[0].dataLink[3] tDistribution:vector ETV
attr "" ""
attr source computeTDistribution
vector 14 Aerocom.aircraft[0].dataLink[11] tDistribution:vector ETV
attr "" ""
attr source computeTDistribution
vector 15 Aerocom.aircraft[0].dataLink[6] tDistribution:vector ETV
attr "" ""
attr source computeTDistribution
vector 16 Aerocom.aircraft[0].dataLink[13] tDistribution:vector ETV
attr "" ""
attr source computeTDistribution
vector 17 Aerocom.aircraft[0].dataLink[4] tDistribution:vector ETV
attr "" ""
attr source computeTDistribution
vector 18 Aerocom.aircraft[0].dataLink[5] tDistribution:vector ETV
attr "" ""
attr source computeTDistribution
vector 19 Aerocom.aircraft[0].dataLink[14] tDistribution:vector ETV
attr "" ""
attr source computeTDistribution
vector 20 Aerocom.aircraft[0].dataLink[2] tDistribution:vector ETV
attr "" ""
attr source computeTDistribution
vector 21 Aerocom.aircraft[0].dataLink[1] tDistribution:vector ETV
attr "" ""
attr source computeTDistribution
0	1056	10.011605689493	0.005680030104
0	1058	10.017285719597	0.112860743292
0	1067	10.130146462889	0.087667624582
0	1072	10.217814087471	0.001600865069
0	1074	10.21941495254	0.093938517174
0	1082	10.313353469714	0.124708996892
0	1088	10.438062466606	0.004014346996
0	1090	10.442076813602	0.043278609017
0	1098	10.485355422619	0.026854954528
0	1103	10.512210377147	0.077750496485
0	1108	10.589960873632	0.00704637523
0	1110	10.597007248862	0.009610855718
0	1118	10.60661810458	0.013538055886
0	1123	10.620156160466	0.061345781452
0	1129	10.681501941918	0.001559411907
0	1131	10.683061353825	0.069111223877
0	1139	10.752172577702	0.194686575204
0	1147	10.946859152906	0.034147135938
0	1154	10.981006288844	0.043700388845
0	1159	11.024706677689	0.085223420117
0	1164	11.109930097806	0.043879664768
0	1170	11.153809762574	0.00841229089
0	1175	11.162222053464	0.002593034053
0	1177	11.164815087517	0.031871146069
0	1185	11.196686233586	0.105300020422
0	1190	11.301986254008	0.029940326111
0	1196	11.331926580119	0.01889049254
0	1201	11.350817072659	0.059850897302
0	1206	11.410667969961	0.136146147029
0	1211	11.54681411699	0.067147442702
0	1216	11.613961559692	0.119440724825
0	1221	11.733402284517	0.10785484592
0	1228	11.841257130437	0.207902304639
0	1235	12.049159435076	0.010556940906
0	1240	12.059716375982	0.072413638303
0	1245	12.132130014285	0.019108107814
0	1250	12.151238122099	0.010240886791
0	1255	12.16147900889	0.020918465739
0	1261	12.182397474629	0.056537396277
0	1266	12.238934870906	0.01542463016
0	1271	12.254359501066	0.003723523044
0	1273	12.25808302411	0.064706953403
0	1281	12.322789977513	0.032462462233
0	1286	12.355252439746	0.032921295925
0	1291	12.388173735671	0.025448357677
0	1296	12.413622093348	0.003813691308
0	1298	12.417435784656	0.049234809015
0	1306	12.466670593671	0.020853582401
0	1311	12.487524176072	0.009808876175
0	1316	12.497333052247	0.043270351586
0	1322	12.540603403833	0.017001869374
0	1327	12.557605273207	0.040737915592
0	1332	12.598343188799	0.109447203022
0	1337	12.707790391821	0.003291286474
0	1339	12.711081678295	0.011685371755
0	1344	12.72276705005	0.034048166341
0	1352	12.756815216391	0.017795217618
0	1357	12.774610434009	0.192592933644
0	1363	12.967203367653	0.000191936216
0	1365	12.967395303869	0.08983893311
0	1375	13.057234236979	0.000541198396
0	1377	13.057775435375	0.033700034742
0	1385	13.091475470117	0.035301073064
0	1391	13.126776543181	0.01253966604
0	1396	13.139316209221	0.069524782424
0	1402	13.208840991645	0.106277428216
0	1408	13.315118419861	0.087630842323
0	1414	13.402749262184	0.020982923862
0	1419	13.423732186046	0.074640767825
0	1425	13.498372953871	0.2040266772
0	1431	13.702399631071	0.137364973246
0	1439	13.839764604317	0.033439153679
0	1446	13.873203757996	0.00783669467
0	1448	13.881040452666	0.078345286825
0	1457	13.959385739491	0.032027192156
0	1462	13.991412931647	0.163034794727
0	1468	14.154447726374	0.016425589851
0	1473	14.170873316225	0.008761065956
0	1478	14.179634382181	0.016045778513
0	1483	14.195680160694	0.000687277812
0	1485	14.196367438506	0.033526061606
0	1493	14.229893500112	0.050997696513
0	1500	14.280891196625	0.016950469904
0	1505	14.297841666529	0.17992573945
0	1510	14.477767405979	0.095287725878
0	1515	14.573055131857	0.0048480178
0	1517	14.577903149657	0.045971320927
0	1526	14.623874470584	0.008768100546
0	1531	14.63264257113	0.013501190819
0	1536	14.646143761949	0.001320895393
0	1538	14.647464657342	0.001488125735
0	1540	14.648952783077	0.084145696317
0	1552	14.733098479394	0.027307680796
0	1557	14.76040616019	0.048909892292
0	1563	14.809316052482	0.044484635838
0	1568	14.85380068832	0.052316839889
0	1573	14.906117528209	0.035595108737
0	1578	14.941712636946	0.100398865437
0	1584	15.042111502383	0.062584952945
0	1589	15.104696455328	0.00801384042
0	1591	15.112710295748	0.013168352267
0	1599	15.125878648015	0.000877910248
0	1601	15.126756558263	0.018628178145
0	1609	15.145384736408	0.059448082072
0	1614	15.20483281848	0.060400426369
0	1620	15.265233244849	0.225734863839
0	1627	15.490968108688	0.025011743655
0	1632	15.515979852343	0.034576409958
0	1637	15.550556262301	0.090489034141
0	1644	15.641045296442	0.025360139962
0	1649	15.666405436404	0.085004175466
0	1654	15.75140961187	0.158316637156
0	1660	15.909726249026	0.026129564578
0	1665	15.935855813604	0.020596663879
0	1670	15.956452477483	0.012118376464
0	1675	15.968570853947	0.015540012844
0	1680	15.984110866791	0.005542279294
0	1682	15.989653146085	0.002134606026
0	1684	15.991787752111	0.00901832773
0	1692	16.000806079841	0.006285680033
0	1695	16.007091759874	0.069248093877
0	1707	16.076339853751	0.122592800408
0	1712	16.198932654159	0.095544661154
0	1718	16.294477315313	0.004813663321
0	1720	16.299290978634	0.040635464856
0	1728	16.33992644349	0.022603681032
0	1733	16.362530124522	0.050579222584
0	1738	16.413109347106	0.021313417762
0	1744	16.434422764868	0.014759859954
0	1749	16.449182624822	0.002135939562
0	1751	16.451318564384	0.088263807195
0	1760	16.539582371579	0.005444789133
0	1762	16.545027160712	0.020816440617
0	1771	16.565843601329	0.009787780798
0	1776	16.575631382127	0.031987010511
0	1781	16.607618392638	0.009127947693
0	1786	16.616746340331	0.006836053623
0	1788	16.623582393954	0.089699790098
0	1797	16.713282184052	0.056878159681
0	1803	16.770160343733	0.236467183106
0	1810	17.006627526839	0.015100431996
0	1816	17.021727958835	0.160387285145
0	1821	17.18211524398	0.022244323166
0	1826	17.204359567146	0.017793070077
0	1832	17.222152637223	0.172522586556
0	1837	17.394675223779	0.027134912363
0	1842	17.421810136142	0.023571410942
0	1848	17.445381547084	0.154769850167
0	1854	17.600151397251	0.107039665462
0	1860	17.707191062713	0.039520368257
0	1865	17.74671143097	0.146984841982
0	1873	17.893696272952	0.005474991154
0	1875	17.899171264106	0.079080843108
0	1884	17.978252107214	0.023299950614
0	1889	18.001552057828	0.026431257301
0	1894	18.027983315129	0.165110898835
0	1901	18.193094213964	0.009884366612
0	1907	18.202978580576	0.030231621401
0	1913	18.233210201977	0.058268850168
0	1919	18.291479052145	0.141527457727
0	1924	18.433006509872	0.068518232748
0	1929	18.50152474262	0.171719814144
0	1935	18.673244556764	0.01331014277
0	1940	18.686554699534	0.121551898109
0	1947	18.808106597643	0.04337560809
0	1952	18.851482205733	0.048577112046
0	1957	18.900059317779	0.010544372573
0	1962	18.910603690352	0.011487748275
0	1967	18.922091438627	0.064675994087
0	1972	18.986767432714	0.026989281273
0	1977	19.013756713987	0.01229699333
0	1982	19.026053707317	0.088725320598
0	1987	19.114779027915	0.027275366869
0	1992	19.142054394784	0.010276100946
0	1997	19.15233049573	0.005901257156
0	1999	19.158231752886	0.002572866609
0	2001	19.160804619495	0.104880137016
0	2014	19.265684756511	0.049904377143
0	2020	19.315589133654	0.081876990722
0	2025	19.397466124376	0.006214835919
0	2027	19.403680960295	0.029121219287
0	2035	19.432802179582	0.011723667334
0	2040	19.444525846916	7.7791588e-05
0	2042	19.444603638504	0.021257924096
0	2050	19.4658615626	0.033534863514
0	2056	19.499396426114	0.078788728527
0	2061	19.578185154641	0.021991569193
0	2067	19.600176723834	0.063812061826
0	2073	19.66398878566	0.031297602614
0	2078	19.695286388274	0.055155631876
0	2084	19.75044202015	0.082417610414
0	2090	19.832859630564	0.023485856793
0	2095	19.856345487357	0.067833151104
0	2102	19.924178638461	0.195083341458
0	2108	20.119261979919	0.042521102986
0	2114	20.161783082905	0.037514424746
0	2119	20.199297507651	0.003529004764
0	2121	20.202826512415	0.068419528759
0	2129	20.271246041174	0.014928569666
0	2134	20.28617461084	0.001289794812
0	2136	20.287464405652	0.061973646691
0	2145	20.349438052343	0.000141558435
0	2147	20.349579610778	0.003951306177
0	2149	20.353530916955	0.003839000287
0	2151	20.357369917242	0.082314577892
0	2167	20.439684495134	0.012511607731
0	2172	20.452196102865	0.022840817648
0	2177	20.475036920513	0.015229642756
0	2182	20.490266563269	0.030719962755
0	2187	20.520986526024	0.104253276292
0	2192	20.625239802316	0.016058983898
0	2197	20.641298786214	0.00508938112
0	2199	20.646388167334	0.027619671275
0	2207	20.674007838609	0.025793024313
0	2212	20.699800862922	0.001969471804
0	2214	20.701770334726	0.014724764846
0	2220	20.716495099572	0.042843352981
0	2228	20.759338452553	0.018764871868
0	2233	20.778103324421	0.080532807457
0	2239	20.858636131878	0.229404611122
0	2244	21.088040743	0.051334651715
0	2249	21.139375394715	0.012291275072
0	2254	21.151666669787	0.006974166033
0	2256	21.15864083582	0.008210814636
0	2261	21.166851650456	0.015676025631
0	2269	21.182527676087	0.037752441235
0	2274	21.220280117322	0.073486017736
0	2280	21.293766135058	0.049412204139
0	2285	21.343178339197	0.012170889283
0	2290	21.35534922848	0.021113738254
0	2295	21.376462966734	0.001781128485
0	2297	21.378244095219	0.134427178317
0	2307	21.512671273536	0.070624111036
0	2313	21.583295384572	0.001985026115
0	2315	21.585280410687	0.130993778313
0	2323	21.716274189	0.08488679643
0	2328	21.80116098543	0.017017649498
0	2333	21.818178634928	0.038050798056
0	2338	21.856229432984	0.007541159019
0	2343	21.863770592003	0.005800552654
0	2345	21.869571144657	0.128879773578
0	2353	21.998450918235	0.024639394396
0	2358	22.023090312631	0.010847359942
0	2363	22.033937672573	0.065824666571
0	2369	22.099762339144	0.037644780462
0	2376	22.137407119606	0.048448079368
0	2383	22.185855198974	0.002463095494
0	2385	22.188318294468	0.055434762255
0	2393	22.243753056723	0.090366126484
0	2399	22.334119183207	0.016507867282
0	2405	22.350627050489	0.076841741931
0	2411	22.42746879242	0.010776403881
0	2416	22.438245196301	0.006060480251
0	2418	22.444305676552	0.014465675069
0	2426	22.458771351621	0.063688451019
0	2431	22.52245980264	0.032473550906
0	2438	22.554933353546	0.11724191032
0	2444	22.672175263866	0.007538448415
0	2449	22.679713712281	0.091677885675
0	2455	22.771391597956	0.000112645288
0	2457	22.771504243244	0.022285376487
0	2465	22.793789619731	0.053097153571
0	2470	22.846886773302	0.015350168806
0	2475	22.862236942108	0.042379960554
0	2480	22.904616902662	0.008391909176
0	2485	22.913008811838	0.017300208222
0	2490	22.93030902006	0.003263399692
0	2492	22.933572419752	0.002916043019
0	2494	22.936488462771	0.032276620476
0	2505	22.968765083247	0.0478816805
0	2510	23.016646763747	0.048871698287
0	2516	23.065518462034	0.02795343159
0	2521	23.093471893624	0.017506703079
0	2526	23.110978596703	0.040978493742
0	2531	23.151957090445	0.088752045017
0	2539	23.240709135462	0.078853579494
0	2545	23.319562714956	0.120171593459
0	2551	23.439734308415	0.025678171614
0	2556	23.465412480029	0.009827526571
0	2561	23.4752400066	0.006477221602
0	2563	23.481717228202	0.108596938692
0	2571	23.590314166894	0.01521977667
0	2576	23.605533943564	0.053033662433
0	2581	23.658567605997	0.060832560478
0	2587	23.719400166475	0.061676853773
0	2594	23.781077020248	0.15390828132
0	2601	23.934985301568	0.011935368287
0	2606	23.946920669855	0.033178388695
0	2613	23.98009905855	0.090279862371
0	2618	24.070378920921	0.039481317116
0	2623	24.109860238037	0.020725177325
0	2628	24.130585415362	0.000307593228
0	2630	24.13089300859	0.012002194685
0	2635	24.142895203275	0.022149303243
0	2643	24.165044506518	0.026558265314
0	2648	24.191602771832	0.008920232327
0	2653	24.200523004159	0.055340770777
0	2658	24.255863774936	0.04320801403
0	2663	24.299071788966	0.042122426053
0	2668	24.341194215019	0.010208707304
0	2673	24.351402922323	0.023319950692
0	2678	24.374722873015	0.060249195169
0	2683	24.434972068184	0.100738670589
0	2688	24.535710738773	0.276349744054
0	2694	24.812060482827	0.083894670916
0	2699	24.895955153743	0.101952692081
0	2705	24.997907845824	0.010228601506
0	2710	25.00813644733	0.178348592622
0	2717	25.186485039952	0.061642804338
0	2723	25.24812784429	0.042708184066
0	2729	25.290836028356	0.013392921098
0	2734	25.304228949454	0.047013685801
0	2739	25.351242635255	0.004676159747
0	2741	25.355918795002	0.049792641585
0	2749	25.405711436587	0.027195043102
0	2754	25.432906479689	0.104064241278
0	2760	25.536970720967	0.085675444478
0	2765	25.622646165445	0.090532597584
0	2770	25.713178763029	0.135120081578
0	2775	25.848298844607	0.005218608035
0	2777	25.853517452642	0.009510841912
0	2782	25.863028294554	0.073254906534
0	2790	25.936283201088	0.032954537202
0	2795	25.96923773829	0.013579188082
0	2800	25.982816926372	0.083364111866
0	2806	26.066181038238	0.082729224127
0	2812	26.148910262365	0.002416636942
0	2814	26.151326899307	0.038182292215
0	2824	26.189509191522	0.077225778571
0	2830	26.266734970093	0.110749103051
0	2836	26.377484073144	0.020059935185
0	2841	26.397544008329	0.004390237672
0	2843	26.401934246001	0.061355534599
0	2853	26.4632897806	0.048094724472
0	2858	26.511384505072	0.023598681797
0	2863	26.534983186869	0.000709631221
0	2865	26.53569281809	0.011032850364
0	2870	26.546725668454	0.030437594853
0	2878	26.577163263307	0.114406089602
0	2884	26.691569352909	0.006018411115
0	2887	26.697587764024	0.014786615611
0	2895	26.712374379635	0.072759264832
0	2901	26.785133644467	0.088688823914
0	2906	26.873822468381	0.041449913008
0	2911	26.915272381389	0.082869087642
0	2917	26.998141469031	0.11214601059
0	2922	27.110287479621	0.007427326321
0	2924	27.117714805942	0.028071623906
0	2932	27.145786429848	0.04299195031
0	2937	27.188778380158	0.061191069018
0	2942	27.249969449176	0.055825825531
0	2947	27.305795274707	0.090934394633
0	2954	27.39672966934	0.118379162212
0	2959	27.515108831552	0.001343042012
0	2961	27.516451873564	0.061211734204
0	2969	27.577663607768	0.00232560128
0	2971	27.579989209048	0.031999943076
0	2979	27.611989152124	0.000530951158
0	2981	27.612520103282	0.139560756476
0	2991	27.752080859758	0.005809751753
0	2993	27.757890611511	0.003064403452
0	2998	27.760955014963	0.05281551032
0	3006	27.813770525283	0.042955670371
0	3011	27.856726195654	0.021120742944
0	3016	27.877846938598	0.019837007675
0	3021	27.897683946273	0.001742108329
0	3023	27.899426054602	0.020151671621
0	3031	27.919577726223	0.046903804041
0	3036	27.966481530264	0.001153793137
0	3038	27.967635323401	0.085413346259
0	3047	28.05304866966	0.081552125831
0	3052	28.134600795491	0.104463036077
0	3059	28.239063831568	0.007672165817
0	3061	28.246735997385	0.033475221188
0	3070	28.280211218573	0.038045863915
0	3075	28.318257082488	0.006167931105
0	3077	28.324425013593	0.120680555857
0	3085	28.44510556945	0.211205325679
0	3091	28.656310895129	0.192343912842
0	3098	28.848654807971	0.114493131974
0	3104	28.963147939945	0.02739769312
0	3110	28.990545633065	0.033714747185
0	3115	29.02426038025	0.02064471774
0	3120	29.04490509799	0.033243010766
0	3125	29.078148108756	0.068365368836
0	3132	29.146513477592	0.048299844792
0	3137	29.194813322384	0.093182839053
0	3142	29.287996161437	0.031807015117
0	3147	29.319803176554	0.091621524104
0	3153	29.411424700658	0.033296610498
0	3158	29.444721311156	0.107929138392
0	3163	29.552650449548	0.062314559279
0	3168	29.614965008827	0.050945904789
0	3173	29.665910913616	0.021884407238
0	3178	29.687795320854	0.033365403777
0	3183	29.721160724631	0.053897558135
0	3189	29.775058282766	0.034783408377
0	3194	29.809841691143	0.045635745739
0	3199	29.855477436882	0.051343114727
0	3204	29.906820551609	0.010898096882
0	3209	29.917718648491	0.039160734645
0	3215	29.956879383136	0.025507267561
0	3220	29.982386650697	0.016449893277
0	3225	29.998836543974	0.054407358001
0	3230	30.053243901975	0.033797094526
0	3235	30.087040996501	0.04421306065
0	3240	30.131254057151	0.174387134747
0	3247	30.305641191898	0.024073106448
0	3252	30.329714298346	0.084209125268
0	3257	30.413923423614	0.051727115751
0	3262	30.465650539365	0.073025090123
0	3267	30.538675629488	0.01649201764
0	3272	30.555167647128	0.020426656172
0	3277	30.5755943033	0.057059234471
0	3283	30.632653537771	0.003333288508
0	3285	30.635986826279	0.098198374763
0	3293	30.734185201042	0.120630353323
0	3299	30.854815554365	0.085499006801
0	3304	30.940314561166	0.026530441528
0	3309	30.966845002694	0.041293754482
0	3315	31.008138757176	0.047898371411
0	3322	31.056037128587	0.254293265004
0	3331	31.310330393591	0.022835972402
0	3337	31.333166365993	0.052725911253
0	3342	31.385892277246	0.021956788738
0	3347	31.407849065984	0.044786473583
0	3352	31.452635539567	0.032459841631
0	3357	31.485095381198	0.064903120681
0	3363	31.549998501879	0.048246055892
0	3368	31.598244557771	0.000209672163
0	3370	31.598454229934	0.041781408439
0	3378	31.640235638373	0.090547890889
0	3383	31.730783529262	0.040653314398
0	3388	31.77143684366	0.037130254405
0	3394	31.808567098065	0.145595036496
0	3399	31.954162134561	0.051698336229
0	3404	32.00586047079	0.051792040701
0	3409	32.057652511491	0.007286421023
0	3411	32.064938932514	0.034283754273
0	3420	32.099222686787	0.018893341528
0	3425	32.118116028315	0.000804939314
0	3427	32.118920967629	0.061102348084
0	3436	32.180023315713	0.043724683826
0	3441	32.223747999539	0.047894447684
0	3447	32.271642447223	0.11373511203
0	3452	32.385377559253	0.045591167933
0	3458	32.430968727186	0.023495921867
0	3463	32.454464649053	0.015967093255
0	3468	32.470431742308	0.029428967088
0	3473	32.499860709396	0.03088915928
0	3478	32.530749868676	0.001150442564
0	3480	32.53190031124	0.007827115678
0	3485	32.539727426918	0.089423977215
0	3494	32.629151404133	0.076447220389
0	3499	32.705598624522	0.005964015075
0	3501	32.711562639597	0.009473790047
0	3506	32.721036429644	0.045838561185
0	3514	32.766874990829	0.047720849589
0	3519	32.814595840418	0.009153758971
0	3524	32.823749599389	0.004532630567
0	3526	32.828282229956	0.004093966578
0	3531	32.832376196534	0.016039995843
0	3539	32.848416192377	0.19322853869
0	3545	33.041644731067	0.068136055545
0	3551	33.109780786612	0.07999003448
0	3556	33.189770821092	0.099866747683
0	3561	33.289637568775	0.020006966189
0	3566	33.309644534964	0.00755986199
0	3568	33.317204396954	0.017414996191
0	3576	33.334619393145	0.009838898737
0	3581	33.344458291882	0.074766482738
0	3586	33.41922477462	0.004169865387
0	3588	33.423394640007	0.065813324002
0	3597	33.489207964009	0.04819117745
0	3602	33.537399141459	0.001145680127
0	3604	33.538544821586	0.197021951149
0	3615	33.735566772735	0.071296931139
0	3620	33.806863703874	0.018611965901
0	3625	33.825475669775	0.004876259586
0	3627	33.830351929361	0.08258521126
0	3635	33.912937140621	0.036346076061
0	3640	33.949283216682	0.003396568904
0	3643	33.952679785586	0.029840974194
0	3651	33.98252075978	0.011565818977
0	3656	33.994086578757	0.218574078065
0	3663	34.212660656822	0.071714440363
0	3670	34.284375097185	0.041961034788
0	3675	34.326336131973	0.232687884476
0	3681	34.559024016449	0.010272945778
0	3686	34.569296962227	0.03832228679
0	3692	34.607619249017	0.05148586613
0	3697	34.659105115147	0.076859492322
0	3702	34.735964607469	0.024900854405
0	3707	34.760865461874	0.005870098103
0	3709	34.766735559977	0.10174498461
0	3717	34.868480544587	0.043810284455
0	3722	34.912290829042	0.006435499702
0	3724	34.918726328744	0.123601685366
0	3733	35.04232801411	0.136563632133
0	3739	35.178891646243	0.32685981107
0	3745	35.505751457313	0.033663477563
0	3750	35.539414934876	0.153666772658
0	3756	35.693081707534	0.179063608658
0	3766	35.872145316192	0.083697422665
0	3772	35.955842738857	0.004995520618
0	3774	35.960838259475	0.159600845138
0	3784	36.120439104613	0.01919759787
0	3789	36.139636702483	0.034904158782
0	3794	36.174540861265	0.052743738669
0	3800	36.227284599934	0.0623964134
0	3807	36.289681013334	0.018442939943
0	3812	36.308123953277	0.031737101612
0	3818	36.339861054889	0.014542345685
0	3823	36.354403400574	0.151421733987
0	3828	36.505825134561	0.103628148702
0	3833	36.609453283263	0.082636958332
0	3839	36.692090241595	0.026225047283
0	3844	36.718315288878	0.089226617398
0	3850	36.807541906276	0.014656174492
0	3855	36.822198080768	0.044143123467
0	3860	36.866341204235	0.026730591612
0	3865	36.893071795847	0.048916025968
0	3870	36.941987821815	0.017875510323
0	3875	36.959863332138	0.126041156863
0	3882	37.085904489001	0.025514764398
0	3887	37.111419253399	0.047912721882
0	3892	37.159331975281	0.008414888982
0	3897	37.167746864263	0.006543445969
0	3899	37.174290310232	0.008311693982
0	3904	37.182602004214	0.193964993668
0	3914	37.376566997882	0.185997540679
0	3921	37.562564538561	0.130928556464
0	3927	37.693493095025	0.08781428411
0	3932	37.781307379135	0.009101421958
0	3937	37.790408801093	0.034207954478
0	3942	37.824616755571	0.005678499368
0	3944	37.830295254939	0.005690106034
0	3949	37.835985360973	0.122568245622
0	3957	37.958553606595	0.013903767703
0	3962	37.972457374298	0.131954394339
0	3969	38.104411768637	0.016764284811
0	3974	38.121176053448	0.097572386754
0	3980	38.218748440202	0.082669130989
0	3986	38.301417571191	0.016205559331
0	3992	38.317623130522	0.114267224623
0	3997	38.431890355145	0.067587221654
0	4003	38.499477576799	0.074899936789
0	4008	38.574377513588	0.070983685935
0	4013	38.645361199523	0.030469655914
0	4019	38.675830855437	0.095339994181
0	4025	38.771170849618	0.102951032742
0	4031	38.87412188236	0.022876738238
0	4036	38.896998620598	0.042668848234
0	4041	38.939667468832	0.089282902777
0	4048	39.028950371609	0.001631301024
0	4050	39.030581672633	0.066810038259
0	4058	39.097391710892	0.030872718164
0	4064	39.128264429056	0.100875788581
0	4070	39.229140217637	0.024395673094
0	4075	39.253535890731	0.066960138558
0	4081	39.320496029289	0.043260497588
0	4089	39.363756526877	0.052672567157
0	4094	39.416429094034	0.025590741752
0	4099	39.442019835786	0.029410216617
0	4104	39.471430052403	0.32296488529
0	4109	39.794394937693	0.067580729967
0	4115	39.86197566766	0.031067208895
0	4120	39.893042876555	0.066570233082
0	4126	39.959613109637	0.098803651554
0	4131	40.058416761191	0.079333500057
0	4137	40.137750261248	0.0391187891
0	4142	40.176869050348	0.08139651265
0	4147	40.258265562998	0.006785492728
0	4149	40.265051055726	0.016238420048
0	4157	40.281289475774	0.049764925867
0	4162	40.331054401641	0.052551692941
0	4167	40.383606094582	0.008546864996
0	4172	40.392152959578	0.24805263955
0	4177	40.640205599128	0.005469418057
0	4179	40.645675017185	0.103025527434
0	4187	40.748700544619	0.0876442069
0	4194	40.836344751519	0.002358357591
0	4196	40.83870310911	0.04118586561
0	4204	40.87988897472	0.196429967695
0	4211	41.076318942415	0.003309589713
0	4213	41.079628532128	0.059049632807
0	4222	41.138678164935	0.038414979729
0	4227	41.177093144664	0.085895408652
0	4232	41.262988553316	0.217274830801
0	4238	41.480263384117	0.07201394622
0	4244	41.552277330337	0.01096225154
0	4249	41.563239581877	0.032246328448
0	4256	41.595485910325	0.045355795898
0	4261	41.640841706223	0.067540089064
0	4267	41.708381795287	0.221349542174
0	4274	41.929731337461	0.014340265965
0	4280	41.944071603426	0.003224332602
0	4282	41.947295936028	0.200036531477
0	4293	42.147332467505	0.05848768904
0	4298	42.205820156545	0.006704876291
0	4300	42.212525032836	0.017018422536
0	4308	42.229543455372	0.0069452076
0	4310	42.236488662972	0.019941441576
0	4318	42.256430104548	0.032933075517
0	4324	42.289363180065	0.073393271224
0	4329	42.362756451289	0.047480296223
0	4334	42.410236747512	0.075749961036
0	4341	42.485986708548	0.10325573888
0	4346	42.589242447428	0.005402399982
0	4348	42.59464484741	0.017013569085
0	4357	42.611658416495	0.042057511153
0	4363	42.653715927648	0.095552963589
0	4369	42.749268891237	0.085187066014
0	4375	42.834455957251	0.122280535861
0	4381	42.956736493112	0.258172155231
0	4391	43.214908648343	0.039883106707
0	4396	43.25479175505	0.023064666276
0	4402	43.277856421326	0.02648924282
0	4407	43.304345664146	0.029773300079
0	4412	43.334118964225	0.201570803726
0	4420	43.535689767951	0.081564771097
0	4425	43.617254539048	0.022297407941
0	4430	43.639551946989	0.022484349009
0	4435	43.662036295998	0.079960275784
0	4441	43.741996571782	0.028704555
0	4446	43.770701126782	0.068713052243
0	4451	43.839414179025	0.122132494153
0	4456	43.961546673178	0.052670535108
0	4461	44.014217208286	0.003829990257
0	4463	44.018047198543	0.101242506131
0	4472	44.119289704674	0.02769637958
0	4477	44.146986084254	0.198457829123
0	4484	44.345443913377	0.183671216399
0	4489	44.529115129776	0.012643638135
0	4494	44.541758767911	0.009962143135
0	4499	44.551720911046	0.003285877641
0	4501	44.555006788687	0.228610499226
0	4510	44.783617287913	0.034291905419
0	4515	44.817909193332	0.033970638266
0	4520	44.851879831598	0.0417784563
0	4525	44.893658287898	0.02027667081
0	4530	44.913934958708	0.014734295383
0	4535	44.928669254091	0.04741156617
0	4540	44.976080820261	0.012930036447
0	4545	44.989010856708	0.015159535546
0	4551	45.004170392254	0.01070946435
0	4557	45.014879856604	0.172066358682
0	4563	45.186946215286	0.047329626437
0	4570	45.234275841723	0.051396256859
0	4576	45.285672098582	0.030621766066
0	4581	45.316293864648	0.001411276051
0	4583	45.317705140699	0.00901115296
0	4589	45.326716293659	0.023413275472
0	4597	45.350129569131	0.064725476225
0	4602	45.414855045356	0.017073028909
0	4607	45.431928074265	0.005279981402
0	4609	45.437208055667	0.152438340798
0	4617	45.589646396465	0.001946092773
0	4619	45.591592489238	0.064059566694
0	4628	45.655652055932	0.110639406614
0	4633	45.766291462546	0.058559287788
0	4640	45.824850750334	0.061954014882
0	4645	45.886804765216	0.033976285381
0	4650	45.920781050597	0.011311620729
0	4655	45.932092671326	0.029422322225
0	4661	45.961514993551	0.054645109543
0	4667	46.016160103094	0.050650761997
0	4672	46.066810865091	0.08062477469
0	4679	46.147435639781	0.048415709049
0	4684	46.19585134883	0.001260458906
0	4686	46.197111807736	0.016164881107
0	4694	46.213276688843	0.040086969924
0	4699	46.253363658767	0.007345747558
0	4701	46.260709406325	0.134408236382
0	4709	46.395117642707	0.024167469172
0	4715	46.419285111879	0.019161601789
0	4721	46.438446713668	0.016872981926
0	4726	46.455319695594	0.060447368813
0	4731	46.515767064407	0.03354473914
0	4736	46.549311803547	0.097931544403
0	4742	46.64724334795	0.087426989955
0	4747	46.734670337905	0.070521677221
0	4753	46.805192015126	0.034192213528
0	4758	46.839384228654	0.014556186514
0	4763	46.853940415168	0.077216751623
0	4770	46.931157166791	0.035787146184
0	4775	46.966944312975	0.044573607479
0	4780	47.011517920454	0.011198314235
0	4786	47.022716234689	0.027981967365
0	4791	47.050698202054	0.006018335561
0	4793	47.056716537615	0.042815440835
0	4801	47.09953197845	0.042925786188
0	4808	47.142457764638	0.042038001405
0	4813	47.184495766043	0.004499362799
0	4815	47.188995128842	0.021310634799
0	4823	47.210305763641	0.051592867951
0	4828	47.261898631592	0.195546182942
0	4837	47.457444814534	0.021410207899
0	4843	47.478855022433	0.013697320111
0	4848	47.492552342544	0.071794226856
0	4855	47.5643465694	0.007375747713
0	4858	47.571722317113	0.018619509784
0	4866	47.590341826897	0.017046216832
0	4871	47.607388043729	0.120283458711
0	4877	47.72767150244	0.003962337847
0	4879	47.731633840287	0.015241659586
0	4887	47.746875499873	0.154524935953
0	4894	47.901400435826	0.016807258956
0	4899	47.918207694782	0.000628926612
0	4901	47.918836621394	0.006506914088
0	4903	47.925343535482	0.064055829219
0	4914	47.989399364701	0.047430819291
0	4920	48.036830183992	0.150157528994
0	4928	48.186987712986	0.04193584239
0	4935	48.228923555376	0.019978183585
0	4940	48.248901738961	0.003101574414
0	4942	48.252003313375	0.045790499971
0	4950	48.297793813346	0.009883449471
0	4955	48.307677262817	0.056618050527
0	4961	48.364295313344	0.036573643433
0	4966	48.400868956777	0.004150909031
0	4969	48.405019865808	0.085040421978
0	4977	48.490060287786	0.005808242838
0	4979	48.495868530624	0.014838760496
0	4987	48.51070729112	0.015248024218
0	4992	48.525955315338	0.029890902464
0	4998	48.555846217802	0.09345621016
0	5003	48.649302427962	0.000182566908
0	5005	48.64948499487	0.017964500083
0	5013	48.667449494953	0.037940568759
0	5019	48.705390063712	0.014610969299
0	5024	48.720001033011	0.05869461475
0	5030	48.778695647761	0.069512959631
0	5036	48.848208607392	0.044343173616
0	5041	48.892551781008	0.012442551893
0	5046	48.904994332901	0.090132783396
0	5052	48.995127116297	0.10805197582
0	5057	49.103179092117	0.004008891141
0	5059	49.107187983258	0.084475936806
0	5067	49.191663920064	0.003791844972
0	5069	49.195455765036	0.109129898155
0	5077	49.304585663191	0.003756307434
0	5079	49.308341970625	0.013504556762
0	5087	49.321846527387	0.059519439987
0	5094	49.381365967374	0.018378897713
0	5099	49.399744865087	0.021199154577
0	5104	49.420944019664	0.056185499645
0	5111	49.477129519309	0.032128280331
0	5116	49.50925779964	0.084562558575
0	5122	49.593820358215	0.075211562759
0	5127	49.669031920974	0.037650754843
0	5132	49.706682675817	0.147081105021
0	5139	49.853763780838	0.029703179186
0	5144	49.883466960024	0.065899037248
0	5149	49.949365997272	0.193028222127
0	5157	50.142394219399	0.134879617655
0	5163	50.277273837054	0.009308743789
0	5168	50.286582580843	0.025344533775
0	5173	50.311927114618	0.017017211567
0	5179	50.328944326185	0.014510957571
0	5184	50.343455283756	0.002233823165
0	5186	50.345689106921	0.056880626219
0	5194	50.40256973314	0.090578243744
0	5200	50.493147976884	0.001336242242
0	5202	50.494484219126	0.150717790483
0	5213	50.645202009609	0.055183664175
0	5218	50.700385673784	0.022834672098
0	5223	50.723220345882	0.042986296692
0	5228	50.766206642574	0.103237636803
0	5233	50.869444279377	0.033217936215
0	5238	50.902662215592	0.094534098728
0	5245	50.99719631432	0.010419736067
0	5250	51.007616050387	0.07151598222
0	5256	51.079132032607	0.155349497588
0	5263	51.234481530195	0.018965948492
0	5268	51.253447478687	0.010156245446
0	5274	51.263603724133	0.11295447732
0	5280	51.376558201453	0.200319790959
0	5288	51.576877992412	0.010224227631
0	5293	51.587102220043	0.008822468951
0	5298	51.595924688994	0.013510720699
0	5303	51.609435409693	0.171177034874
0	5308	51.780612444567	0.027386311507
0	5313	51.807998756074	0.01398451469
0	5318	51.821983270764	0.10224220181
0	5325	51.924225472574	0.030857766547
0	5330	51.955083239121	0.008732153738
0	5335	51.963815392859	0.030443973939
0	5340	51.994259366798	0.041090134667
0	5345	52.035349501465	0.067546398695
0	5350	52.10289590016	0.092192823753
0	5355	52.195088723913	0.013421217722
0	5362	52.208509941635	0.039107952091
0	5367	52.247617893726	0.05995906128
0	5373	52.307576955006	0.000163544707
0	5375	52.307740499713	0.010460123611
0	5381	52.318200623324	0.016794012452
0	5389	52.334994635776	0.038504848357
0	5394	52.373499484133	0.021153154799
0	5399	52.394652638932	0.046200052618
0	5404	52.44085269155	0.020195250603
0	5409	52.461047942153	0.018934376482
0	5414	52.479982318635	0.052491263572
0	5419	52.532473582207	0.156923843591
0	5424	52.689397425798	0.24749337666
0	5432	52.936890802458	0.136568325688
0	5438	53.073459128146	0.028986161166
0	5443	53.102445289312	0.053837630862
0	5448	53.156282920174	0.027439670442
0	5453	53.183722590616	0.019634969365
0	5459	53.203357559981	0.036213945176
0	5464	53.239571505157	0.08973405031
0	5470	53.329305555467	0.007132827725
0	5472	53.336438383192	0.002951866461
0	5477	53.339390249653	0.041468027881
0	5485	53.380858277534	0.014550311089
0	5490	53.395408588623	0.004143488942
0	5492	53.399552077565	0.041971818257
0	5500	53.441523895822	0.005938009354
0	5502	53.447461905176	0.106440088258
0	5510	53.553901993434	0.001802799021
0	5512	53.555704792455	0.108974989576
0	5521	53.664679782031	0.017867572051
0	5527	53.682547354082	0.00618648471
0	5529	53.688733838792	0.053944648912
0	5537	53.742678487704	0.060723723857
0	5542	53.803402211561	0.12707832513
0	5550	53.930480536691	0.004162088454
0	5552	53.934642625145	0.020088447615
0	5560	53.95473107276	0.045110235439
0	5566	53.999841308199	0.002929125589
0	5568	54.002770433788	0.140410772225
0	5577	54.143181206013	0.111117707676
0	5583	54.254298913689	0.017100903473
0	5589	54.271399817162	0.052667353891
0	5596	54.324067171053	0.086597742629
0	5604	54.410664913682	0.003884902468
0	5606	54.41454981615	0.006492000046
0	5611	54.421041816196	0.040576926115
0	5619	54.461618742311	0.017922002866
0	5624	54.479540745177	0.178470913472
0	5631	54.658011658649	0.038747794203
0	5637	54.696759452852	0.010093357749
0	5642	54.706852810601	0.007518163341
0	5644	54.714370973942	0.144999071547
0	5653	54.859370045489	0.058757386023
0	5659	54.918127431512	0.00293587797
0	5661	54.921063309482	0.007451927887
0	5666	54.928515237369	0.047559978788
0	5675	54.976075216157	0.159928333885
0	5680	55.136003550042	0.045812473885
0	5685	55.181816023927	0.01989695161
0	5690	55.201712975537	0.06272425
0	5695	55.264437225537	0.005767634534
0	5697	55.270204860071	0.025332076437
0	5706	55.295536936508	0.003478180658
0	5708	55.299015117166	0.125138433269
0	5717	55.424153550435	0.03032400768
0	5722	55.454477558115	0.132642829906
0	5727	55.587120388021	0.025582765465
0	5732	55.612703153486	0.016091566562
0	5737	55.628794720048	0.224496154307
0	5745	55.853290874355	0.006447132618
0	5747	55.859738006973	0.017396814743
0	5755	55.877134821716	0.180456971713
0	5762	56.057591793429	0.165992502599
0	5769	56.223584296028	0.014448755519
0	5774	56.238033051547	0.077105461609
0	5779	56.315138513156	0.01887246764
0	5786	56.334010980796	0.067257328069
0	5791	56.401268308865	0.013185007878
0	5797	56.414453316743	0.100123460973
0	5802	56.514576777716	0.006501784964
0	5805	56.52107856268	0.122679901216
0	5813	56.643758463896	0.02659107954
0	5818	56.670349543436	0.030681127117
0	5823	56.701030670553	0.053436429167
0	5830	56.75446709972	0.04030213283
0	5835	56.79476923255	0.002249608189
0	5837	56.797018840739	0.02326038571
0	5845	56.820279226449	0.112641165442
0	5850	56.932920391891	0.009263234842
0	5855	56.942183626733	0.10856473894
0	5861	57.050748365673	0.121726509588
0	5868	57.172474875261	0.098984086744
0	5874	57.271458962005	0.004725623228
0	5876	57.276184585233	0.072205049124
0	5884	57.348389634357	0.048045082798
0	5889	57.396434717155	0.008632936383
0	5895	57.405067653538	0.038744054264
0	5901	57.443811707802	0.041537347114
0	5906	57.485349054916	0.11674640215
0	5911	57.602095457066	0.004654158091
0	5913	57.606749615157	0.018662681984
0	5921	57.625412297141	0.030336616155
0	5927	57.655748913296	0.093086320509
0	5932	57.748835233805	0.054665766979
0	5937	57.803501000784	0.161016019677
0	5945	57.964517020461	0.003707674378
0	5947	57.968224694839	0.013146845336
0	5955	57.981371540175	0.008956035789
0	5960	57.990327575964	0.072245524986
0	5965	58.06257310095	0.001938245394
0	5967	58.064511346344	0.031369168086
0	5975	58.09588051443	0.028800051334
0	5980	58.124680565764	0.054764159914
0	5986	58.179444725678	0.092799735565
0	5993	58.272244461243	0.069761491459
0	5998	58.342005952702	0.143201888868
0	6004	58.48520784157	0.020180349843
0	6009	58.505388191413	0.014666841834
0	6014	58.520055033247	0.00207489639
0	6016	58.522129929637	0.002275547878
0	6018	58.524405477515	0.052010373072
0	6030	58.576415850587	0.057518761791
0	6035	58.633934612378	0.006079925633
0	6037	58.640014538011	0.021020895725
0	6045	58.661035433736	0.035694723701
0	6050	58.696730157437	0.121806754734
0	6055	58.818536912171	0.012244147382
0	6060	58.830781059553	0.063817724812
0	6066	58.894598784365	0.000601891752
0	6068	58.895200676117	0.132020532319
0	6076	59.027221208436	0.02823605533
0	6081	59.055457263766	0.002716620955
0	6083	59.058173884721	0.118869196038
0	6092	59.177043080759	0.004495224733
0	6094	59.181538305492	0.076867171899
0	6104	59.258405477391	0.02643760054
0	6109	59.284843077931	0.014960762607
0	6114	59.299803840538	0.042112374448
0	6119	59.341916214986	0.022581977033
0	6125	59.364498192019	0.015958334392
0	6130	59.380456526411	0.053702907751
0	6135	59.434159434162	0.015015264684
0	6140	59.449174698846	0.22394678908
0	6146	59.673121487926	0.1538229961
0	6153	59.826944484026	0.052255096089
0	6158	59.879199580115	0.02359304087
0	6163	59.902792620985	0.042219369637
0	6168	59.945011990622	0.067543940278
0	6175	60.0125559309	0.051995001016
0	6180	60.064550931916	0.052644221073
0	6186	60.117195152989	0.05922480998
0	6192	60.176419962969	0.120811336651
0	6199	60.29723129962	0.076437795671
0	6205	60.373669095291	0.00711609813
0	6207	60.380785193421	0.014458040486
0	6215	60.395243233907	0.034592443323
0	6220	60.42983567723	0.063678501028
0	6225	60.493514178258	0.055906525718
0	6231	60.549420703976	0.049905468399
0	6236	60.599326172375	0.04313008929
0	6241	60.642456261665	0.108406516608
0	6249	60.750862778273	0.326459358371
0	6258	61.077322136644	0.086964019952
0	6263	61.164286156596	0.002130287514
0	6265	61.16641644411	0.018501184137
0	6273	61.184917628247	0.002285301818
0	6275	61.187202930065	0.012654412358
0	6280	61.199857342423	0.113877005575
0	6291	61.313734347998	0.035074404856
0	6297	61.348808752854	0.06296610145
0	6304	61.411774854304	0.137058029743
0	6310	61.548832884047	0.008357700222
0	6315	61.557190584269	0.004750066421
0	6317	61.56194065069	0.013519363671
0	6325	61.575460014361	0.0912830468
0	6330	61.666743061161	0.053117768874
0	6335	61.719860830035	0.002207316734
0	6337	61.722068146769	0.043456180286
0	6345	61.765524327055	0.05854617262
0	6350	61.824070499675	0.195315287499
0	6358	62.019385787174	0.044922589973
0	6365	62.064308377147	0.068542320268
0	6371	62.132850697415	0.006641654687
0	6373	62.139492352102	0.029393386399
0	6382	62.168885738501	0.032372149486
0	6387	62.201257887987	0.026445650664
0	6394	62.227703538651	0.011018095571
0	6399	62.238721634222	0.012560275526
0	6405	62.251281909748	0.088150800536
0	6410	62.339432710284	0.074071224994
0	6415	62.413503935278	0.031761686676
0	6420	62.445265621954	0.034333660064
0	6425	62.479599282018	0.0314978833
0	6431	62.511097165318	0.002305395422
0	6433	62.51340256074	0.025714975428
0	6441	62.539117536168	0.068366143613
0	6446	62.607483679781	0.114817828643
0	6452	62.722301508424	0.015721139762
0	6457	62.738022648186	0.122110823524
0	6463	62.86013347171	0.08092029187
0	6469	62.94105376358	0.025992741501
0	6474	62.967046505081	0.14019944509
0	6480	63.107245950171	0.004495757344
0	6482	63.111741707515	0.121966520298
0	6490	63.233708227813	0.117691494328
0	6495	63.351399722141	0.075030097102
0	6501	63.426429819243	0.119066698349
0	6507	63.545496517592	0.001605393823
0	6509	63.547101911415	0.054210940458
0	6517	63.601312851873	0.044068597536
0	6523	63.645381449409	0.127396233131
0	6530	63.77277768254	0.010430384082
0	6535	63.783208066622	0.014125934544
0	6540	63.797334001166	0.011917223127
0	6545	63.809251224293	0.00868075161
0	6550	63.817931975903	0.013543759565
0	6555	63.831475735468	0.103806240594
0	6560	63.935281976062	0.124420301817
0	6566	64.059702277879	0.061895637559
0	6572	64.121597915438	0.079196687648
0	6577	64.200794603086	0.004499181287
0	6579	64.205293784373	0.074165040352
0	6587	64.279458824725	0.055401870846
0	6592	64.334860695571	0.04266630272
0	6597	64.377526998291	0.064599918379
0	6603	64.44212691667	0.098850331095
0	6608	64.540977247765	0.080023748833
0	6613	64.621000996598	0.033229255882
0	6618	64.65423025248	0.102893692293
0	6624	64.757123944773	0.117912671159
0	6631	64.875036615932	0.003843785545
0	6633	64.878880401477	0.020053966917
0	6641	64.898934368394	0.064641650908
0	6646	64.963576019302	0.002994381505
0	6648	64.966570400807	0.051463792222
0	6657	65.018034193029	0.0496998153
0	6663	65.067734008329	0.003409970831
0	6665	65.07114397916	0.22227413528
0	6674	65.29341811444	0.024673799182
0	6680	65.318091913622	0.009418576866
0	6685	65.327510490488	0.073954992429
0	6691	65.401465482917	0.14735103027
0	6697	65.548816513187	0.038024436882
0	6703	65.586840950069	0.159042084372
0	6708	65.745883034441	0.004407430227
0	6710	65.750290464668	0.04486027329
0	6719	65.795150737958	0.140136456191
0	6726	65.935287194149	0.04079109482
0	6731	65.976078288969	0.079385450549
0	6736	66.055463739518	0.035291239447
0	6741	66.090754978965	0.259531798731
0	6748	66.350286777696	0.101587904222
0	6756	66.451874681918	0.213272189479
0	6762	66.665146871397	0.008241916045
0	6767	66.673388787442	0.0019664113
0	6769	66.675355198742	0.043460503165
0	6777	66.718815701907	0.123943810902
0	6782	66.842759512809	0.070163763016
0	6788	66.912923275825	0.022215662055
0	6793	66.93513893788	0.004266695361
0	6795	66.939405633241	0.014949200856
0	6803	66.954354834097	0.015154066665
0	6808	66.969508900762	0.002177379704
0	6810	66.971686280466	0.109106353156
0	6821	67.080792633622	0.12897499298
0	6827	67.209767626602	0.057574347585
0	6832	67.267341974187	0.020349193778
0	6837	67.287691167965	0.016570888052
0	6842	67.304262056017	0.016841713413
0	6847	67.32110376943	0.011152584636
0	6852	67.332256354066	0.013567884996
0	6857	67.345824239062	0.01503318575
0	6863	67.360857424812	0.091980873044
0	6871	67.452838297856	0.064405083257
0	6876	67.517243381113	0.007197500115
0	6878	67.524440881228	0.109178942233
0	6887	67.633619823461	0.015644009434
0	6892	67.649263832895	0.004739030652
0	6894	67.654002863547	0.061071065391
0	6903	67.715073928938	0.046749452847
0	6908	67.761823381785	0.12569675945
0	6915	67.887520141235	0.051317826775
0	6920	67.93883796801	0.042550124406
0	6926	67.981388092416	0.015112921458
0	6931	67.996501013874	0.04156277656
0	6936	68.038063790434	0.027782891741
0	6941	68.065846682175	0.024580037768
0	6946	68.090426719943	0.007478425133
0	6948	68.097905145076	0.24020619098
0	6956	68.338111336056	0.054367940948
0	6963	68.392479277004	0.016793122506
0	6968	68.40927239951	0.248035102762
0	6980	68.657307502272	0.035090008544
0	6986	68.692397510816	0.02214870697
0	6992	68.714546217786	0.115133032307
0	6998	68.829679250093	0.060455655382
0	7004	68.890134905475	0.054247057185
0	7009	68.94438196266	0.038529907854
0	7014	68.982911870514	0.026862195001
0	7020	69.009774065515	0.003192207071
0	7022	69.012966272586	0.006498828451
0	7027	69.019465101037	0.009431326488
0	7032	69.028896427525	0.042463648116
0	7040	69.071360075641	0.040258695453
0	7045	69.111618771094	0.081091668585
0	7051	69.192710439679	0.013422479774
0	7056	69.206132919453	0.17863889695
0	7061	69.384771816403	0.027179759997
0	7066	69.4119515764	0.05362925506
0	7071	69.46558083146	0.212166627799
0	7078	69.677747459259	0.030114699072
0	7083	69.707862158331	0.035397007469
0	7088	69.7432591658	0.034685276975
0	7093	69.777944442775	0.087931668284
0	7098	69.865876111059	0.04317796367
0	7104	69.909054074729	0.060954551509
0	7109	69.970008626238	0.071525581723
0	7114	70.041534207961	0.019698527252
0	7119	70.061232735213	0.000249199983
0	7121	70.061481935196	0.004785410586
0	7123	70.066267345782	0.068752381506
0	7137	70.135019727288	0.270878949527
0	7144	70.405898676815	0.118944246132
0	7151	70.524842922947	0.027861772066
0	7156	70.552704695013	0.016027143872
0	7161	70.568731838885	0.048550582955
0	7166	70.61728242184	0.01459227687
0	7172	70.63187469871	0.00077208279
0	7174	70.6326467815	0.021377706642
0	7182	70.654024488142	0.033727571535
0	7188	70.687752059677	0.006568742423
0	7190	70.6943208021	0.036758918631
0	7198	70.731079720731	0.004405347172
0	7200	70.735485067903	0.152909956876
0	7208	70.888395024779	0.03469012158
0	7214	70.923085146359	0.083305861911
0	7219	71.00639100827	0.005748832719
0	7221	71.012139840989	0.027517227215
0	7229	71.039657068204	0.009783515167
0	7234	71.049440583371	0.056804403656
0	7240	71.106244987027	0.018374991347
0	7245	71.124619978374	0.048247837383
0	7250	71.172867815757	0.013304450138
0	7255	71.186172265895	6.6098784e-05
0	7257	71.186238364679	0.011039856851
0	7262	71.19727822153	0.003505740171
0	7264	71.200783961701	0.075535326025
0	7276	71.276319287726	0.04598328528
0	7281	71.322302573006	0.042646469692
0	7286	71.364949042698	0.021976096354
0	7291	71.386925139052	0.049681833069
0	7296	71.436606972121	0.055001415635
0	7301	71.491608387756	0.067150990651
0	7306	71.558759378407	0.106090486312
0	7314	71.664849864719	0.021492114137
0	7319	71.686341978856	0.043540728385
0	7324	71.729882707241	0.014553026224
0	7329	71.744435733465	0.095758530868
0	7335	71.840194264333	0.030444045484
0	7340	71.870638309817	0.074723417927
0	7346	71.945361727744	0.047562857448
0	7351	71.992924585192	0.004760081706
0	7353	71.997684666898	0.013193087656
0	7361	72.010877754554	0.002618146709
0	7363	72.013495901263	0.085681240639
0	7371	72.099177141902	0.004219480829
0	7373	72.103396622731	0.125787615025
0	7382	72.229184237756	0.032574779103
0	7388	72.261759016859	0.06322393651
0	7393	72.324982953369	0.009269188532
0	7398	72.334252141901	0.037923729609
0	7403	72.37217587151	0.00220111684
0	7405	72.37437698835	0.049214782973
0	7413	72.423591771323	0.058209456928
0	7418	72.481801228251	0.143149980796
0	7424	72.624951209047	0.024629859712
0	7429	72.649581068759	0.024351810714
0	7434	72.673932879473	0.054825535755
0	7440	72.728758415228	0.009156697004
0	7445	72.737915112232	0.003245258765
0	7447	72.741160370997	0.003075938306
0	7450	72.744236309303	0.027492750328
0	7461	72.771729059631	0.085374711688
0	7468	72.857103771319	0.10373843985
0	7474	72.960842211169	0.063995843887
0	7480	73.024838055056	0.08614799006
0	7485	73.110986045116	0.030503020134
0	7490	73.14148906525	0.044458058914
0	7495	73.185947124164	0.274968537762
0	7504	73.460915661926	0.079757106705
0	7512	73.540672768631	0.037385387873
0	7517	73.578058156504	0.008765060964
0	7522	73.586823217468	0.015646664984
0	7527	73.602469882452	0.007042511172
0	7529	73.609512393624	0.005301556492
0	7534	73.614813950116	0.031450586397
0	7542	73.646264536513	0.16563836736
0	7549	73.811902903873	0.083656259607
0	7554	73.89555916348	0.01525659697
0	7559	73.91081576045	0.073074477923
0	7564	73.983890238373	0.043918314708
0	7569	74.027808553081	0.046631173624
0	7574	74.074439726705	0.028457036099
0	7579	74.102896762804	0.017376956674
0	7585	74.120273719478	0.067069423791
0	7591	74.187343143269	0.191970521851
0	7597	74.37931366512	0.060337882585
0	7603	74.439651547705	0.013128484794
0	7608	74.452780032499	0.007841983202
0	7613	74.460622015701	0.024255080889
0	7619	74.48487709659	0.012154199679
0	7624	74.497031296269	0.172069451464
0	7631	74.669100747733	0.069095266198
0	7636	74.738196013931	0.056402046197
0	7641	74.794598060128	0.029449274019
0	7646	74.824047334147	0.031058556362
0	7651	74.855105890509	0.029479466004
0	7656	74.884585356513	0.061442289533
0	7661	74.946027646046	0.081883743533
0	7667	75.027911389579	0.00538813039
0	7669	75.033299519969	0.165040052703
0	7678	75.198339572672	0.034574336813
0	7683	75.232913909485	0.001084822525
0	7685	75.23399873201	0.024617636306
0	7693	75.258616368316	0.111003221242
0	7698	75.369619589558	0.116315576298
0	7705	75.485935165856	0.077998906002
0	7712	75.563934071858	0.256315572818
0	7719	75.820249644676	0.022392216911
0	7724	75.842641861587	0.165845219612
0	7730	76.008487081199	0.035349193381
0	7735	76.04383627458	0.038454967495
0	7740	76.082291242075	0.001786607663
0	7742	76.084077849738	0.002141167586
0	7744	76.086219017324	0.103393868322
0	7755	76.189612885646	0.015462548605
0	7760	76.205075434251	0.03545971634
0	7765	76.240535150591	0.043030031798
0	7770	76.283565182389	0.027929595358
0	7775	76.311494777747	0.012362436119
0	7780	76.323857213866	0.001634324183
0	7782	76.325491538049	0.104980155482
0	7791	76.430471693531	0.094492703706
0	7796	76.524964397237	0.010718845411
0	7801	76.535683242648	0.000347694589
0	7803	76.536030937237	0.01333930633
0	7809	76.549370243567	0.192391398595
0	7817	76.741761642162	0.090478114314
0	7823	76.832239756476	0.004364209154
0	7825	76.83660396563	0.035752350903
0	7834	76.872356316533	0.045247630937
0	7839	76.91760394747	0.013029765788
0	7844	76.930633713258	0.149615420748
0	7852	77.080249134006	0.063975398717
0	7858	77.144224532723	0.055472865049
0	7863	77.199697397772	0.041178152027
0	7868	77.240875549799	0.114333584943
0	7873	77.355209134742	0.023689032582
0	7878	77.378898167324	0.099036955283
0	7884	77.477935122607	0.048202913457
0	7889	77.526138036064	0.028256995744
0	7894	77.554395031808	0.04428383292
0	7899	77.598678864728	0.000981864725
0	7901	77.599660729453	0.013737926438
0	7906	77.613398655891	0.059482410223
0	7914	77.672881066114	0.055258901502
0	7919	77.728139967616	0.028436444958
0	7925	77.756576412574	0.031397301328
0	7930	77.787973713902	0.074174391702
0	7936	77.862148105604	0.247034790629
0	7943	78.109182896233	0.025898389808
0	7948	78.135081286041	0.033439497792
0	7953	78.168520783833	0.053772921936
0	7958	78.222293705769	0.060593502186
0	7963	78.282887207955	0.014075966946
0	7968	78.296963174901	0.087106338649
0	7973	78.38406951355	0.128194704227
0	7979	78.512264217777	0.159747600431
0	7985	78.672011818208	0.023188701455
0	7990	78.695200519663	0.046651563954
0	7995	78.741852083617	0.10267369105
0	8001	78.844525774667	0.06405181623
0	8006	78.908577590897	0.021377842142
0	8011	78.929955433039	0.008437742281
0	8017	78.93839317532	0.013883331333
0	8022	78.952276506653	0.021975103207
0	8027	78.97425160986	0.101719854851
0	8032	79.075971464711	0.001186658478
0	8034	79.077158123189	0.07856077312
0	8042	79.155718896309	0.085967377578
0	8047	79.241686273887	0.1911436794
0	8053	79.432829953287	0.198100385612
0	8058	79.630930338899	0.209085285363
0	8065	79.840015624262	0.02881512832
0	8070	79.868830752582	0.021905029862
0	8075	79.890735782444	0.187400922039
0	8081	80.078136704483	0.034067722717
0	8086	80.1122044272	0.046593356437
0	8091	80.158797783637	0.093960586554
0	8098	80.252758370191	0.067858044638
0	8103	80.320616414829	0.003492021983
0	8105	80.324108436812	0.103326054077
0	8113	80.427434490889	0.011496782038
0	8118	80.438931272927	0.022044252041
0	8123	80.460975524968	0.025645145789
0	8128	80.486620670757	0.016515747766
0	8134	80.503136418523	0.003901232126
0	8136	80.507037650649	0.127264861738
0	8147	80.634302512387	0.024228020885
0	8152	80.658530533272	0.070036805129
0	8157	80.728567338401	0.137091009415
0	8162	80.865658347816	0.324512047591
0	8168	81.190170395407	0.008690045586
0	8173	81.198860440993	0.023966389774
0	8178	81.222826830767	0.055386920947
0	8183	81.278213751714	0.007671100575
0	8185	81.285884852289	0.021907596759
0	8193	81.307792449048	0.043434668927
0	8199	81.351227117975	0.06448247214
0	8205	81.415709590115	0.098051808612
0	8210	81.513761398727	0.09452576221
0	8217	81.608287160937	0.035720095498
0	8223	81.644007256435	0.102419854134
0	8230	81.746427110569	0.017418122309
0	8235	81.763845232878	0.025489974197
0	8241	81.789335207075	0.010825248693
0	8247	81.800160455768	0.292054862899
0	8255	82.092215318667	0.009332550267
0	8260	82.101547868934	0.048941075681
0	8265	82.150488944615	0.011556726453
0	8270	82.162045671068	0.028948054012
0	8275	82.19099372508	0.040437287843
0	8280	82.231431012923	0.13864341256
0	8288	82.370074425483	0.05686962478
0	8294	82.426944050263	0.002511010689
0	8296	82.429455060952	0.060001613519
0	8304	82.489456674471	0.029757245361
0	8309	82.519213919832	0.000795008851
0	8311	82.520008928683	0.040898521044
0	8319	82.560907449727	0.035637878177
0	8324	82.596545327904	0.03980662048
0	8332	82.636351948384	0.042815447496
0	8337	82.67916739588	0.028887503355
0	8342	82.708054899235	0.0265911414
0	8347	82.734646040635	0.081101116308
0	8353	82.815747156943	0.038067752873
0	8358	82.853814909816	0.044354764018
0	8363	82.898169673834	0.13601994052
0	8369	83.034189614354	0.008034036267
0	8374	83.042223650621	0.050577339926
0	8379	83.092800990547	0.022936385968
0	8385	83.115737376515	0.053518570435
0	8390	83.16925594695	0.025870984424
0	8396	83.195126931374	0.037509731427
0	8403	83.232636662801	0.119578117282
0	8408	83.352214780083	0.01838776602
0	8413	83.370602546103	0.003531911306
0	8415	83.374134457409	0.026188408208
0	8423	83.400322865617	0.09376988997
0	8428	83.494092755587	0.003353095426
0	8430	83.497445851013	0.057622114307
0	8438	83.55506796532	0.082386232961
0	8444	83.637454198281	0.037155037398
0	8449	83.674609235679	0.005262271813
0	8451	83.679871507492	0.151941557204
0	8460	83.831813064696	0.074500228725
0	8467	83.906313293421	0.005384958829
0	8469	83.91169825225	0.026507934942
0	8477	83.938206187192	0.067503761779
0	8483	84.005709948971	0.031085558436
0	8488	84.036795507407	0.009962026812
0	8493	84.046757534219	0.067953005846
0	8498	84.114710540065	0.08497610511
0	8504	84.199686645175	0.125269812305
0	8509	84.32495645748	0.036838347093
0	8514	84.361794804573	0.069214770086
0	8520	84.431009574659	0.104096767583
0	8526	84.535106342242	0.012248034438
0	8531	84.54735437668	0.112051920161
0	8539	84.659406296841	0.152849119509
0	8544	84.81225541635	0.00999879313
0	8549	84.82225420948	0.009613813482
0	8554	84.831868022962	0.044372199295
0	8559	84.876240222257	0.096808887176
0	8564	84.973049109433	0.022629102716
0	8569	84.995678212149	0.03470471925
0	8575	85.030382931399	0.008430123928
0	8580	85.038813055327	0.001098573357
0	8582	85.039911628684	0.005308806403
0	8584	85.045220435087	0.107290404524
0	8597	85.152510839611	0.001505930478
0	8599	85.154016770089	0.027553372801
0	8607	85.18157014289	0.017469174306
0	8612	85.199039317196	0.074300237012
0	8617	85.273339554208	0.041409285722
0	8624	85.31474883993	0.045500083729
0	8629	85.360248923659	0.013754155632
0	8635	85.374003079291	0.006221876045
0	8637	85.380224955336	0.066629796457
0	8645	85.446854751793	0.027147751831
0	8650	85.474002503624	0.212333629911
0	8656	85.686336133535	0.078563482721
0	8661	85.764899616256	0.001608240255
0	8663	85.766507856511	0.173232727953
0	8672	85.939740584464	0.00888084945
0	8677	85.948621433914	0.064426047605
0	8682	86.013047481519	0.035553808611
0	8687	86.04860129013	0.009662472049
0	8692	86.058263762179	0.149742678472
0	8698	86.208006440651	0.096917032974
0	8703	86.304923473625	0.049168918162
0	8708	86.354092391787	0.067630199699
0	8713	86.421722591486	0.041168345924
0	8719	86.46289093741	0.024694612392
0	8726	86.487585549802	0.003671678822
0	8728	86.491257228624	0.099605952306
0	8736	86.59086318093	0.02653248497
0	8741	86.6173956659	0.071882589216
0	8746	86.689278255116	0.040362940677
0	8751	86.729641195793	0.001392591224
0	8753	86.731033787017	0.003213752869
0	8755	86.734247539886	0.003407124272
0	8760	86.737654664158	0.011948996811
0	8765	86.749603660969	0.045626670594
0	8777	86.795230331563	0.035122830847
0	8782	86.83035316241	0.022117964845
0	8787	86.852471127255	0.035607472697
0	8793	86.888078599952	0.292916688617
0	8799	87.180995288569	0.003141237592
0	8801	87.184136526161	0.013360361814
0	8809	87.197496887975	0.066649377003
0	8814	87.264146264978	0.058581343352
0	8820	87.32272760833	0.012670250857
0	8825	87.335397859187	0.033701039573
0	8831	87.36909889876	0.178469604799
0	8838	87.547568503559	0.174963445079
0	8844	87.722531948638	0.002517059469
0	8846	87.725049008107	0.04100279171
0	8854	87.766051799817	0.163927016817
0	8859	87.929978816634	0.018137216493
0	8864	87.948116033127	0.09673387585
0	8870	88.044849908977	0.059565030156
0	8876	88.104414939133	0.200096237538
0	8883	88.304511176671	0.028152475364
0	8888	88.332663652035	0.115432254983
0	8893	88.448095907018	0.056889693379
0	8898	88.504985600397	0.075426063145
0	8903	88.580411663542	0.076693764311
0	8908	88.657105427853	0.019715985056
0	8914	88.676821412909	0.106346260962
0	8921	88.783167673871	0.090577657034
0	8928	88.873745330905	0.046347509418
0	8934	88.920092840323	0.187169175627
0	8940	89.10726201595	0.137042385229
0	8945	89.244304401179	0.077425887141
0	8950	89.32173028832	0.070181093524
0	8955	89.391911381844	0.076745127041
0	8961	89.468656508885	0.030921894606
0	8966	89.499578403491	0.037350067968
0	8971	89.536928471459	0.005567288459
0	8973	89.542495759918	0.039190227503
0	8982	89.581685987421	0.029068338604
0	8987	89.610754326025	0.009281598303
0	8992	89.620035924328	0.121993279592
0	8997	89.74202920392	0.084670491727
0	9003	89.826699695647	0.009386341706
0	9008	89.836086037353	0.056088763821
0	9013	89.892174801174	0.007250658888
0	9015	89.899425460062	0.038408672654
0	9023	89.937834132716	0.04888402198
0	9029	89.986718154696	0.054488206481
0	9034	90.041206361177	0.000690538143
0	9036	90.04189689932	0.002427438947
0	9038	90.044324338267	0.021175467165
0	9049	90.065499805432	0.056032354209
0	9054	90.121532159641	0.002688342731
0	9056	90.124220502372	0.037774526368
0	9064	90.16199502874	0.022080940431
0	9069	90.184075969171	0.089026362246
0	9074	90.273102331417	0.021112128826
0	9079	90.294214460243	0.005694071581
0	9081	90.299908531824	0.010385268812
0	9089	90.310293800636	0.043321338572
0	9095	90.353615139208	0.187437081355
0	9101	90.541052220563	0.022943896788
0	9106	90.563996117351	0.077970697545
0	9111	90.641966814896	0.056164870263
0	9116	90.698131685159	0.001288737243
0	9118	90.699420422402	0.235387184555
0	9128	90.934807606957	0.051102158545
0	9133	90.985909765502	0.008684519924
0	9139	90.994594285426	0.110548868113
0	9149	91.105143153539	0.026605060537
0	9154	91.131748214076	0.024549640159
0	9159	91.156297854235	0.095239096342
0	9164	91.251536950577	0.058354338365
0	9169	91.309891288942	0.020821965334
0	9174	91.330713254276	0.122266066022
0	9180	91.452979320298	0.023562127625
0	9185	91.476541447923	0.0460656041
0	9191	91.522607052023	0.037231670915
0	9196	91.559838722938	0.026404145461
0	9202	91.586242868399	0.011560832161
0	9207	91.59780370056	0.007123550503
0	9209	91.604927251063	0.014265194877
0	9219	91.61919244594	0.009371828899
0	9225	91.628564274839	0.011198919208
0	9230	91.639763194047	0.016969371651
0	9236	91.656732565698	0.022079175026
0	9241	91.678811740724	0.015223467718
0	9246	91.694035208442	0.018239545959
0	9251	91.712274754401	0.045901857596
0	9258	91.758176611997	0.069117464848
0	9264	91.827294076845	0.044256509665
0	9269	91.87155058651	0.04534582029
0	9274	91.9168964068	0.009450712394
0	9279	91.926347119194	0.021058640794
0	9284	91.947405759988	0.035212446092
0	9289	91.98261820608	0.035561764065
0	9294	92.018179970145	0.027192126665
0	9300	92.04537209681	0.00861174168
0	9305	92.05398383849	0.004225605202
0	9307	92.058209443692	0.088058918629
0	9316	92.146268362321	0.07481366891
0	9321	92.221082031231	0.008088154674
0	9326	92.229170185905	0.090763934147
0	9331	92.319934120052	0.043536405127
0	9338	92.363470525179	0.001820846607
0	9340	92.365291371786	0.033509316888
0	9348	92.398800688674	0.005360941037
0	9350	92.404161629711	0.043596553682
0	9358	92.447758183393	0.02516434144
0	9363	92.472922524833	0.037590127803
0	9368	92.510512652636	0.099319424103
0	9374	92.609832076739	0.071272335899
0	9380	92.681104412638	0.009289740856
0	9385	92.690394153494	0.039670334805
0	9390	92.730064488299	0.004163732706
0	9392	92.734228221005	0.050806033916
0	9401	92.785034254921	0.066155988128
0	9406	92.851190243049	0.009916909483
0	9411	92.861107152532	0.03250888837
0	9416	92.893616040902	0.104695494599
0	9421	92.998311535501	0.020035986004
0	9426	93.018347521505	0.003405461047
0	9428	93.021752982552	0.056650552544
0	9437	93.078403535096	0.006918425531
0	9439	93.085321960627	0.042119081123
0	9447	93.12744104175	0.021934404894
0	9453	93.149375446644	0.034005748812
0	9458	93.183381195456	0.064718092871
0	9465	93.248099288327	0.023008009071
0	9471	93.271107297398	0.009744718904
0	9476	93.280852016302	0.000231189634
0	9478	93.281083205936	0.041235883196
0	9486	93.322319089132	0.099915578702
0	9493	93.422234667834	0.262420685407
0	9502	93.684655353241	0.047284808516
0	9507	93.731940161757	0.071804496228
0	9512	93.803744657985	0.085024086148
0	9517	93.888768744133	0.05359971156
0	9524	93.942368455693	0.057084076428
0	9529	93.999452532121	0.065935525976
0	9534	94.065388058097	0.028569148867
0	9539	94.093957206964	0.010645145234
0	9544	94.104602352198	0.015848069027
0	9549	94.120450421225	0.050308091637
0	9554	94.170758512862	0.011595430841
0	9559	94.182353943703	0.130434000068
0	9565	94.312787943771	0.048090593169
0	9571	94.36087853694	0.056310411445
0	9577	94.417188948385	0.033964406032
0	9584	94.451153354417	0.073175245178
0	9589	94.524328599595	0.045500097294
0	9595	94.569828696889	0.049281601383
0	9600	94.619110298272	0.067883001209
0	9605	94.686993299481	0.007583475669
0	9607	94.69457677515	0.218109456474
0	9615	94.912686231624	0.006753998537
0	9617	94.919440230161	0.028648961037
0	9625	94.948089191198	0.00236433125
0	9627	94.950453522448	0.094229979639
0	9635	95.044683502087	0.00025476798
0	9637	95.044938270067	0.015552036027
0	9645	95.060490306094	0.002669760651
0	9647	95.063160066745	0.025886502174
0	9655	95.089046568919	0.002564851563
0	9657	95.091611420482	0.116383778279
0	9665	95.207995198761	0.093017028497
0	9670	95.301012227258	0.040793466505
0	9675	95.341805693763	0.308154324899
0	9681	95.649960018662	0.040452441399
0	9686	95.690412460061	0.021837172399
0	9691	95.71224963246	0.202489175952
0	9698	95.914738808412	0.015407779885
0	9703	95.930146588297	0.05531860288
0	9708	95.985465191177	0.069693799597
0	9713	96.055158990774	0.040130413723
0	9719	96.095289404497	0.150492642994
0	9724	96.245782047491	0.001570404299
0	9726	96.24735245179	0.109415647888
0	9734	96.356768099678	0.029300797384
0	9739	96.386068897062	0.09287093282
0	9745	96.478939829882	0.057843790317
0	9750	96.536783620199	0.040848032102
0	9755	96.577631652301	0.171106386661
0	9764	96.748738038962	0.009106993231
0	9769	96.757845032193	0.007044002071
0	9771	96.764889034264	0.018481864171
0	9780	96.783370898435	0.036559137354
0	9785	96.819930035789	0.003196017416
0	9787	96.823126053205	0.106198388749
0	9795	96.929324441954	0.036641161103
0	9800	96.965965603057	0.019852138514
0	9805	96.985817741571	0.077480772483
0	9811	97.063298514054	0.02242839295
0	9816	97.085726907004	0.078336697349
0	9822	97.164063604353	0.006950247289
0	9825	97.171013851642	0.085781048398
0	9833	97.25679490004	0.04752830431
0	9839	97.30432320435	0.011521215198
0	9844	97.315844419548	0.006596844347
0	9846	97.322441263895	0.004199187721
0	9851	97.326640451616	0.034558735141
0	9859	97.361199186757	0.014930409445
0	9864	97.376129596202	0.068413408366
0	9870	97.444543004568	0.007648085673
0	9875	97.452191090241	0.002352366453
0	9877	97.454543456694	0.038032462558
0	9885	97.492575919252	0.00285135968
0	9887	97.495427278932	0.018658558053
0	9896	97.514085836985	0.229151161284
0	9905	97.743236998269	0.071809683101
0	9910	97.81504668137	0.077564468687
0	9916	97.892611150057	0.004287680017
0	9918	97.896898830074	0.007546155965
0	9923	97.904444986039	0.10763370918
0	9933	98.012078695219	0.066845461621
0	9938	98.07892415684	0.029168243313
0	9943	98.108092400153	0.145003276485
0	9948	98.253095676638	0.003642210008
0	9950	98.256737886646	0.042011660418
0	9958	98.298749547064	0.015656990164
0	9963	98.314406537228	0.00660050948
0	9965	98.321007046708	0.000414606597
0	9967	98.321421653305	0.050312516333
0	9978	98.371734169638	0.009834898225
0	9983	98.381569067863	0.079225750837
0	9988	98.4607948187	0.003195442007
0	9990	98.463990260707	0.006471358731
0	9995	98.470461619438	0.095825080264
0	10004	98.566286699702	0.026241325597
0	10009	98.592528025299	0.132262782442
0	10015	98.724790807741	0.064982333858
0	10021	98.789773141599	0.009649853988
0	10026	98.799422995587	0.0026632255
0	10028	98.802086221087	0.00192661977
0	10030	98.804012840857	0.017250577683
0	10039	98.82126341854	0.002944123621
0	10045	98.824207542161	0.009649156942
0	10050	98.833856699103	0.010297992108
0	10058	98.844154691211	0.002903427786
0	10060	98.847058118997	0.049877507688
0	10069	98.896935626685	0.017880490553
0	10074	98.914816117238	0.029945738717
0	10079	98.944761855955	0.04178909603
0	10085	98.986550951985	0.003157601769
0	10087	98.989708553754	0.008221171431
0	10092	98.997929725185	0.013143297658
0	10100	99.011073022843	0.013603721797
0	10105	99.02467674464	0.061240631814
0	10112	99.085917376454	0.088524699851
0	10117	99.174442076305	0.013627344894
0	10122	99.188069421199	0.132838563612
0	10128	99.320907984811	0.003463171363
0	10130	99.324371156174	0.000874718071
0	10132	99.325245874245	0.017535374129
0	10140	99.342781248374	0.090241971201
0	10149	99.433023219575	0.014300855217
0	10154	99.447324074792	0.023089654883
0	10159	99.470413729675	0.02039055721
0	10165	99.490804286885	0.000230581075
0	10167	99.49103486796	0.019341392626
0	10175	99.510376260586	0.035577167846
0	10180	99.545953428432	0.143751228451
0	10185	99.689704656883	0.016021799884
0	10190	99.705726456767	0.054823035308
0	10195	99.760549492075	0.081086480158
0	10201	99.841635972233	0.021132411661
0	10206	99.862768383894	0.009568042821
0	10211	99.872336426715	0.044368028945
0	10216	99.91670445566	0.033865842008
0	10221	99.950570297668	0.011515054817
0	10226	99.962085352485	0.072662776929
0	10232	100.034748129414	0.000634017597
0	10234	100.035382147011	0.007723081979
0	10239	100.04310522899	0.034903765271
0	10247	100.078008994261	0.091996018075
0	10252	100.170005012336	0.018449907237
0	10257	100.188454919573	0.009445859306
0	10262	100.197900778879	0.002102099382
0	10264	100.200002878261	0.114121272264
0	10273	100.314124150525	0.017451987393
0	10278	100.331576137918	0.008697048607
0	10283	100.340273186525	0.090235723059
0	10288	100.430508909584	0.058264157374
0	10294	100.488773066958	0.000245767842
0	10296	100.4890188348	0.038049690633
0	10304	100.527068525433	0.020276970188
0	10309	100.547345495621	0.13072838987
0	10315	100.678073885491	0.006352602589
0	10319	100.68442648808	0.016453854756
0	10327	100.700880342836	0.003378079582
0	10329	100.704258422418	0.00345808878
0	10331	100.707716511198	0.019983304637
0	10342	100.727699815835	0.224592850153
0	10347	100.952292665988	0.033493785766
0	10352	100.985786451754	0.059873511195
0	10357	101.045659962949	0.079596938163
0	10362	101.125256901112	0.088543259782
0	10367	101.213800160894	0.07003440035
0	10372	101.283834561244	0.014647480049
0	10377	101.298482041293	0.109662862229
0	10385	101.408144903522	0.081328468506
0	10391	101.489473372028	0.085220119395
0	10399	101.574693491423	0.029273792897
0	10404	101.60396728432	0.064305088845
0	10409	101.668272373165	0.080771792059
0	10414	101.749044165224	0.092654135108
0	10420	101.841698300332	0.015605940245
0	10425	101.857304240577	0.058589556717
0	10430	101.915893797294	0.026917645021
0	10435	101.942811442315	0.123678575275
0	10442	102.06649001759	0.003298090245
0	10444	102.069788107835	0.060290288411
0	10452	102.130078396246	0.043036824934
0	10457	102.17311522118	0.043173019381
0	10462	102.216288240561	0.026700955689
0	10467	102.24298919625	0.107060400249
0	10474	102.350049596499	0.106152626082
0	10482	102.456202222581	0.047946078023
0	10487	102.504148300604	0.045308363321
0	10492	102.549456663925	0.009404696406
0	10498	102.558861360331	0.020086799715
0	10503	102.578948160046	0.035973352855
0	10508	102.614921512901	0.009190355384
0	10513	102.624111868285	0.048815462778
0	10519	102.672927331063	0.040549786743
0	10524	102.713477117806	0.029566188173
0	10529	102.743043305979	0.02236627041
0	10534	102.765409576389	0.031879013381
0	10541	102.79728858977	0.084782771659
0	10547	102.882071361429	0.046489554631
0	10554	102.92856091606	0.024394753565
0	10559	102.952955669625	0.038892778147
0	10564	102.991848447772	0.015223270645
0	10569	103.007071718417	0.010925258205
0	10574	103.017996976622	0.099197347682
0	10579	103.117194324304	3.4648436e-05
0	10581	103.11722897274	0.003686126152
0	10583	103.120915098892	0.001229885666
0	10585	103.122144984558	0.002626198891
0	10587	103.124771183449	0.000925456912
0	10589	103.125696640361	0.011822798137
0	10597	103.137519438498	0.006083417095
0	10602	103.143602855593	2.6644472e-05
0	10604	103.143629500065	0.048785819655
0	10621	103.19241531972	0.001075121198
0	10623	103.193490440918	0.038709347273
0	10635	103.232199788191	0.016650086416
0	10640	103.248849874607	0.051035207186
0	10645	103.299885081793	0.11603714252
0	10651	103.415922224313	0.059309917853
0	10657	103.475232142166	0.057004908407
0	10662	103.532237050573	0.080531775936
0	10667	103.612768826509	0.005585584483
0	10669	103.618354410992	0.103010286156
0	10677	103.721364697148	0.127329519074
0	10682	103.848694216222	0.100225091953
0	10687	103.948919308175	0.174662606362
0	10694	104.123581914537	0.068965975508
0	10702	104.192547890045	0.027206250567
0	10707	104.219754140612	0.120721945304
0	10712	104.340476085916	0.038192688277
0	10717	104.378668774193	0.033891915615
0	10722	104.412560689808	0.001835658786
0	10724	104.414396348594	0.027618057888
0	10732	104.442014406482	0.063573188462
0	10737	104.505587594944	0.011895563046
0	10742	104.51748315799	0.06728812366
0	10747	104.58477128165	0.113006743068
0	10753	104.697778024718	0.012061077061
0	10758	104.709839101779	0.044156425379
0	10763	104.753995527158	0.089274890951
0	10769	104.843270418109	0.006130944631
0	10771	104.84940136274	0.198894599485
0	10780	105.048295962225	0.068090721699
0	10787	105.116386683924	0.128839013182
0	10793	105.245225697106	0.115462461211
0	10802	105.360688158317	0.077918283299
0	10807	105.438606441616	0.022284508267
0	10812	105.460890949883	0.080530137318
0	10818	105.541421087201	0.038273203973
0	10824	105.579694291174	0.060352545369
0	10829	105.640046836543	0.023355157798
0	10834	105.663401994341	0.015575239769
0	10840	105.67897723411	0.022022027396
0	10845	105.700999261506	0.014231269549
0	10850	105.715230531055	0.062136273459
0	10855	105.777366804514	0.07472211898
0	10860	105.852088923494	0.009261957992
0	10865	105.861350881486	0.094558468408
0	10870	105.955909349894	0.005423732846
0	10872	105.96133308274	0.027958602751
0	10880	105.989291685491	0.103987477757
0	10886	106.093279163248	0.018602005003
0	10891	106.111881168251	0.002751698115
0	10893	106.114632866366	0.102526196803
0	10903	106.217159063169	0.115431037271
0	10909	106.33259010044	0.042446141598
0	10916	106.375036242038	0.022630231456
0	10921	106.397666473494	0.010449274539
0	10926	106.408115748033	0.006729105148
0	10928	106.414844853181	0.028495442578
0	10936	106.443340295759	0.01600651697
0	10942	106.459346812729	0.035827332798
0	10947	106.495174145527	0.027153535957
0	10952	106.522327681484	0.03517874199
0	10959	106.557506423474	0.026998952495
0	10964	106.584505375969	0.05477699334
0	10969	106.639282369309	0.009979051111
0	10974	106.64926142042	0.034425741379
0	10979	106.683687161799	0.142363144307
0	10986	106.826050306106	0.04073571605
0	10991	106.866786022156	0.053479745949
0	10996	106.920265768105	0.086596743749
0	11002	107.006862511854	0.132384241061
0	11008	107.139246752915	0.055850632125
0	11013	107.19509738504	0.121118843829
0	11020	107.316216228869	0.012210823346
0	11025	107.328427052215	0.000214319194
0	11027	107.328641371409	0.070231969453
0	11036	107.398873340862	0.002072670372
0	11038	107.400946011234	0.154939645922
0	11046	107.555885657156	0.035316086306
0	11051	107.591201743462	0.048431428337
0	11056	107.639633171799	0.022120591602
0	11061	107.661753763401	0.000326284102
0	11063	107.662080047503	0.025693586132
0	11071	107.687773633635	0.077226443251
0	11076	107.765000076886	0.034749100743
0	11082	107.799749177629	0.013577909178
0	11088	107.813327086807	0.022659337371
0	11093	107.835986424178	0.069052633106
0	11098	107.905039057284	0.105347538603
0	11105	108.010386595887	0.217318844423
0	11114	108.22770544031	0.015895343745
0	11119	108.243600784055	0.039427803876
0	11125	108.283028587931	0.047713725006
0	11130	108.330742312937	0.011590322879
0	11135	108.342332635816	0.042949650408
0	11140	108.385282286224	0.005054185719
0	11142	108.390336471943	0.07209803241
0	11151	108.462434504353	0.029670957871
0	11156	108.492105462224	0.077021926132
0	11162	108.569127388356	0.114049359948
0	11168	108.683176748304	0.062152956787
0	11173	108.745329705091	0.013108530766
0	11178	108.758438235857	0.075482987511
0	11185	108.833921223368	0.005273002623
0	11188	108.839194225991	0.004226702377
0	11193	108.843420928368	0.030817928158
0	11201	108.874238856526	0.070531589446
0	11206	108.944770445972	0.030362327963
0	11211	108.975132773935	0.005253688063
0	11213	108.980386461998	0.012727891855
0	11221	108.993114353853	0.129031282041
0	11226	109.122145635894	0.005638783342
0	11228	109.127784419236	0.022730032459
0	11236	109.150514451695	0.056539104965
0	11241	109.20705355666	0.098965212933
0	11247	109.306018769593	0.04683883895
0	11252	109.352857608543	0.028784595889
0	11257	109.381642204432	0.006790619476
0	11259	109.388432823908	0.014157380522
0	11267	109.40259020443	0.062440628145
0	11272	109.465030832575	0.059201326184
0	11277	109.524232158759	0.050724794675
0	11282	109.574956953434	0.091124912843
0	11287	109.666081866277	0.003573838068
0	11289	109.669655704345	0.398244435365
0	11298	110.06790013971	0.054450289902
0	11304	110.122350429612	0.006897137039
0	11306	110.129247566651	0.009789122756
0	11314	110.139036689407	0.003903544347
0	11316	110.142940233754	0.143911337919
0	11324	110.286851571673	0.020753449223
0	11329	110.307605020896	0.042808620431
0	11336	110.350413641327	0.021715651344
0	11341	110.372129292671	0.096603938123
0	11347	110.468733230794	0.020455359695
0	11352	110.489188590489	0.032772341094
0	11357	110.521960931583	0.121161656446
0	11362	110.643122588029	0.095897665821
0	11368	110.73902025385	0.029026166509
0	11373	110.768046420359	0.035238198368
0	11378	110.803284618727	0.028384330755
0	11383	110.831668949482	0.023138003325
0	11388	110.854806952807	0.042478446598
0	11394	110.897285399405	0.051040388557
0	11399	110.948325787962	0.023144130531
0	11404	110.971469918493	0.073723335432
0	11410	111.045193253925	0.030781366303
0	11416	111.075974620228	0.005992605566
0	11418	111.081967225794	0.037406804763
0	11426	111.119374030557	0.00918523749
0	11431	111.128559268047	0.004242932599
0	11433	111.132802200646	0.009216879501
0	11438	111.142019080147	0.036031620182
0	11446	111.178050700329	0.001459649753
0	11448	111.179510350082	0.04499029904
0	11456	111.224500649122	0.010310791903
0	11461	111.234811441025	0.02922627036
0	11467	111.264037711385	0.025542325185
0	11472	111.28958003657	0.04455741488
0	11478	111.33413745145	0.158237876965
0	11485	111.492375328415	0.017492293515
0	11490	111.50986762193	0.000693104934
0	11492	111.510560726864	0.155075304428
0	11502	111.665636031292	0.01905389781
0	11507	111.684689929102	0.086145295268
0	11512	111.77083522437	0.04362378554
0	11517	111.81445900991	0.026312939939
0	11522	111.840771949849	0.019662688473
0	11527	111.860434638322	0.052820721982
0	11532	111.913255360304	0.079576817747
0	11538	111.992832178051	0.02544179847
0	11543	112.018273976521	0.00096843749
0	11545	112.019242414011	0.05052769021
0	11553	112.069770104221	0.083182908579
0	11562	112.1529530128	0.019805448947
0	11568	112.172758461747	0.006266170094
0	11570	112.179024631841	0.026554806573
0	11578	112.205579438414	0.013433133778
0	11584	112.219012572192	0.007526335721
0	11589	112.226538907913	0.014102756209
0	11594	112.240641664122	0.02548468497
0	11599	112.266126349092	0.003001003797
0	11601	112.269127352889	0.156266935139
0	11610	112.425394288028	0.023133671129
0	11615	112.448527959157	0.315318131743
0	11625	112.7638460909	0.038917682788
0	11630	112.802763773688	0.051688918404
0	11635	112.854452692092	0.020159546605
0	11640	112.874612238697	0.027886660582
0	11645	112.902498899279	0.040796201449
0	11650	112.943295100728	0.025672613688
0	11656	112.968967714416	0.065778836941
0	11661	113.034746551357	0.053703480359
0	11667	113.088450031716	0.068824818756
0	11672	113.157274850472	0.000633937801
0	11674	113.157908788273	0.008553797502
0	11679	113.166462585775	0.007258434646
0	11681	113.173721020421	0.021458184146
0	11692	113.195179204567	0.058709830825
0	11697	113.253889035392	0.003601766088
0	11699	113.25749080148	0.011149619142
0	11704	113.268640420622	0.04337446844
0	11713	113.312014889062	0.067780028496
0	11718	113.379794917558	0.001319627236
0	11720	113.381114544794	0.023818961434
0	11730	113.404933506228	0.013613423858
0	11736	113.418546930086	0.009782841625
0	11741	113.428329771711	0.002868611138
0	11743	113.431198382849	0.054483345495
0	11753	113.485681728344	0.064049740701
0	11758	113.549731469045	0.034107549095
0	11763	113.58383901814	0.150127361637
0	11768	113.733966379777	0.021692962272
0	11773	113.755659342049	0.014710625518
0	11778	113.770369967567	0.007659713057
0	11781	113.778029680624	0.002608899607
0	11786	113.780638580231	0.079974971867
0	11794	113.860613552098	0.160270619189
0	11799	114.020884171287	0.014078454344
0	11804	114.034962625631	0.103652964389
0	11812	114.13861559002	0.255778267553
0	11820	114.394393857573	0.054000459688
0	11825	114.448394317261	0.011043915382
0	11831	114.459438232643	0.047118318876
0	11836	114.506556551519	0.000492993386
0	11838	114.507049544905	4.678643e-05
0	11840	114.507096331335	0.06923745096
0	11851	114.576333782295	0.170732665776
0	11858	114.747066448071	0.096438312685
0	11864	114.843504760756	0.072030958576
0	11869	114.915535719332	0.065982563338
0	11874	114.98151828267	0.014341243069
0	11879	114.995859525739	0.014406534031
0	11884	115.01026605977	0.064533088075
0	11890	115.074799147845	0.091907505056
0	11895	115.166706652901	0.129780343353
0	11902	115.296486996254	0.079227663563
0	11908	115.375714659817	0.068013709562
0	11914	115.443728369379	0.006999118449
0	11916	115.450727487828	0.12437078359
0	11924	115.575098271418	0.00437916669
0	11926	115.579477438108	0.010003126581
0	11931	115.589480564689	0.114853308609
0	11941	115.704333873298	0.113242179798
0	11948	115.817576053096	0.132384373069
0	11954	115.949960426165	0.111402333282
0	11962	116.061362759447	0.012568386603
0	11967	116.07393114605	0.053355854446
0	11972	116.127287000496	0.034091480266
0	11977	116.161378480762	0.029582615789
0	11982	116.190961096551	0.104093603643
0	11988	116.295054700194	0.042810671216
0	11993	116.33786537141	0.189655126084
0	12000	116.527520497494	0.014817098994
0	12005	116.542337596488	0.321757125184
0	12012	116.864094721672	0.001305330227
0	12014	116.865400051899	0.028619870911
[...]
19	14691	140.980448833946	0.487820583265
19	14767	141.468269417211	0.75133142061003
19	14892	142.219600837821	0.70142665187844
19	14969	142.921027489699	4.467649065514
19	15438	147.388676555213	4.563568908243
19	15929	151.952245463456	2.9276683723337
19	16237	154.87991383579	4.1120158118038
19	16634	158.991929647594	0.053579218552959
19	16636	159.045508866147	0.95620059160837
19	16707	160.001709457755	3.9442634967533
19	17127	163.945972954508	0.64850517065343
19	17188	164.594478125161	0.97405093813846
19	17352	165.568529063299	2.8632949527738
19	17672	168.431824016073	3.8936026441628
19	18101	172.325426660236	0.18923083066983
19	18112	172.514657490906	0.56958562303143
19	18183	173.084243113937	1.344686400971
19	18357	174.428929514908	0.82072906446342
19	18416	175.249658579371	6.3222895735286
19	19130	181.5719481529	4.3460759554437
19	19739	185.918024108344	0.69590066634498
19	19829	186.613924774689	0.54954325649386
19	19860	187.163468031183	0.46838131011167
19	19912	187.631849341295	2.1552468270972
19	20156	189.787096168392	3.7063142371999
19	20592	193.493410405592	0.60670716045071
19	20687	194.100117566043	1.675436383808
19	20868	195.775553949851	3.8697174179785
19	21176	199.64527136783	0.13828183413291
19	21189	199.783553201963	1.8083332524212
19	21342	201.591886454384	1.3111272620296
19	21464	202.903013716414	1.2499518862884
19	21621	204.152965602702	2.6343402036242
19	21895	206.787305806326	2.2697238582486
19	22164	209.057029664575	5.651655146222
19	22744	214.708684810797	2.5624708499264
19	22981	217.271155660723	4.2506293627063
19	23380	221.521785023429	2.1517108224012
19	23649	223.67349584583	1.8104565398282
19	23842	225.483952385658	1.9654660667314
19	24087	227.449418452389	0.81714392814092
19	24185	228.26656238053	0.5145435825848
19	24223	228.781105963115	2.7876725621524
19	24473	231.568778525267	2.2870717964426
19	24710	233.85585032171	0.050266868003507
19	24715	233.906117189714	0.029322000768589
19	24716	233.935439190483	0.99834999268684
19	24822	234.93378918317	2.1793445348151
19	25077	237.113133717985	3.9367373392971
19	25572	241.049871057282	1.5407597783591
19	25732	242.590630835641	5.1451644474933
19	26262	247.735795283134	0.45524156401951
19	26297	248.191036847154	9.7219436723446
19	27384	257.912980519499	3.7352950328102
19	27777	261.648275552309	2.8968196693494
19	28080	264.545095221658	0.02304221063926
19	28087	264.568137432297	0.082633108096147
19	28096	264.650770540393	0.011076187687979
19	28097	264.661846728081	2.0860262424849
19	28331	266.747872970566	2.4584973326514
19	28604	269.206370303217	0.90725323284224
19	28712	270.113623536059	0.39124791751676
19	28780	270.504871453576	3.1971563700447
19	29161	273.702027823621	0.057333834808592
19	29172	273.75936165843	5.1658578085293
19	29834	278.925219466959	1.1111304590909
19	29910	280.03634992605	0.91424854305805
19	29985	280.950598469108	1.3462342409262
19	30147	282.296832710034	0.71424768022433
19	30212	283.011080390258	1.1439462440823
19	30331	284.15502663434	2.2673442949682
19	30561	286.422370929308	1.4152691848075
19	30645	287.837640114116	4.2041072014051
19	31076	292.041747315521	0.99098764215667
19	31214	293.032734957678	2.1277832977168
19	31488	295.160518255395	0.059486295497226
19	31495	295.220004550892	0.00026124093594998
19	31496	295.220265791828	13.951347170054
19	32847	309.171612961882	2.2290412121487
19	33103	311.400654174031	0.3047941846478
19	33145	311.705448358679	2.994962043485
19	33447	314.700410402164	3.2862260939234
19	33720	317.986636496087	0.07989689569263
19	33747	318.06653339178	0.062227939461741
19	33754	318.128761331242	5.7793302247488
19	34353	323.908091555991	2.5821923606243
19	34650	326.490283916615	0.36002697266834
19	34708	326.850310889283	4.4566902036822
19	35224	331.307001092965	6.8604862018706
19	35885	338.167487294836	1.5869580176275
19	36037	339.754445312463	0.54403203049538
19	36083	340.298477342958	0.55392941604717
19	36163	340.852406759005	1.4693215582198
19	36331	342.321728317225	2.7209217079693
19	36623	345.042650025194	1.9695779131033
19	36792	347.012227938297	2.9587203944175
19	37127	349.970948332715	5.9102014709992
19	37852	355.881149803714	9.5219423503995
19	38811	365.403092154113	2.6439912875668
19	39068	368.04708344168	0.52182403593601
19	39130	368.568907477616	10.078024773752
19	40306	378.646932251368	0.51741625173387
19	40377	379.164348503102	0.57785806241783
19	40457	379.74220656552	2.2909162289044
19	40721	382.033122794424	1.1862684415013
19	40845	383.219391235925	7.9303297043137
19	41802	391.149720940239	0.22414833062311
19	41826	391.373869270862	1.5996728371378
19	42020	392.973542108	2.9227416682685
19	42358	395.896283776269	0.96614192207025
19	42456	396.862425698339	0.97182994746424
19	42543	397.834255645803	2.8245459583475
20	1828	17.21009417419	0.21965050457382
20	1844	17.429744678764	4.7405304666353
20	2382	22.170275145399	1.5661929486477
20	2592	23.736468094047	1.2111191434305
20	2704	24.947587237477	3.9649033509421
20	3103	28.912490588419	2.112033908893
20	3320	31.024524497312	2.6059157604964
20	3612	33.630440257808	0.64815757952532
20	3669	34.278597837333	1.4679979150244
20	3761	35.746595752357	7.2170464689345
20	4383	42.963642221292	0.4279730375986
20	4419	43.391615258891	4.8311782127961
20	4934	48.222793471687	3.2670367021691
20	5286	51.489830173856	0.37013497431229
20	5323	51.859965148168	5.7847287554488
20	5926	57.644693903617	0.76735427669064
20	6003	58.412048180308	1.5706150954191
20	6174	59.982663275727	0.70831135214739
20	6247	60.690974627874	1.5137288088482
20	6389	62.204703436722	2.2102627843147
20	6602	64.414966221037	0.43166802090969
20	6630	64.846634241947	0.14435971531181
20	6656	64.990993957259	2.6165709326958
20	6886	67.607564889955	2.4767628676032
20	7131	70.084327757558	5.3972442005007
20	7704	75.481571958059	6.8453124773673
20	8286	82.326884435426	3.8068762605071
20	8697	86.133760695933	0.34645156067551
20	8724	86.480212256609	0.99168143175834
20	8837	87.471893688367	1.4307564870553
20	8933	88.902650175422	2.8443557647186
20	9257	91.747005940141	1.7673532309872
20	9499	93.514359171128	0.83060805598452
20	9570	94.344967227113	2.8236393621764
20	9824	97.168606589289	4.3831046181445
20	10397	101.551711207434	3.4057229568507
20	10779	104.957434164285	3.8791667716795
20	11187	108.836600935965	2.4898438895748
20	11477	111.32644482554	0.65883238280605
20	11537	111.985277208346	0.089900069436773
20	11555	112.075177277783	0.56071146649771
20	11622	112.635888744281	0.76969591639598
20	11732	113.405584660677	2.001214034718
20	11913	115.406798695395	0.21749393146839
20	11939	115.624292626863	3.6687486537094
20	12355	119.293041280572	0.29668283469902
20	12389	119.589724115271	2.50306287998
20	12609	122.092786995251	3.3128198099627
20	12978	125.405606805214	0.75407027661637
20	13051	126.15967708183	8.0027985739991
20	13931	134.162475655829	0.9726227318068
20	14038	135.135098387636	0.10187161780126
20	14064	135.236970005437	1.4307835266244
20	14232	136.667753532061	3.0404666329805
20	14541	139.708220165042	0.35570252950618
20	14581	140.063922694548	0.45285280424596
20	14620	140.516775498794	5.7666552716345
20	15316	146.283430770428	1.2063654749166
20	15445	147.489796245345	1.8053154344016
20	15656	149.295111679747	3.3854284116106
20	15998	152.680540091358	0.8731118189903
20	16107	153.553651910348	3.6272657660572
20	16470	157.180917676405	1.8948261771059
20	16637	159.075743853511	0.76041662271638
20	16701	159.836160476227	1.0442289093091
20	16808	160.880389385536	1.4001644788259
20	16956	162.280553864362	1.7473296991293
20	17139	164.027883563491	1.1549733783414
20	17285	165.182856941832	1.426109759742
20	17490	166.608966701574	0.37303026545195
20	17518	166.981996967026	0.47422601317933
20	17581	167.456222980205	1.7829080551546
20	17757	169.23913103536	3.8501319752761
20	18186	173.089263010636	3.3705799457741
20	18533	176.45984295641	0.38076906155474
20	18561	176.840612017965	1.178022518241
20	18678	178.018634536206	3.2159280438129
20	19101	181.234562580019	0.7034721444897
20	19190	181.938034724509	1.1873540059523
20	19378	183.125388730461	0.075189398069331
20	19379	183.20057812853	2.388338557469
20	19682	185.588916685999	1.3254397188099
20	19856	186.914356404809	2.4376205617154
20	20105	189.351976966524	0.31237245163209
20	20150	189.664349418156	4.58089719194
20	20703	194.245246610096	6.2557578816582
20	21267	200.501004491754	0.3997733771732
20	21292	200.900777868927	1.3124231096905
20	21381	202.213200978617	2.7972119443042
20	21697	205.010412922921	0.83779081666125
20	21783	205.848203739582	1.8728713549938
20	21995	207.721075094576	0.56198959146371
20	22092	208.28306468604	3.075258893181
20	22445	211.358323579221	2.8191338958039
20	22680	214.177457475025	0.75198153834901
20	22757	214.929439013374	3.3584784032771
20	23086	218.287917416651	0.75580910571049
20	23179	219.043726522361	12.944286865485
20	24525	231.988013387846	0.73441175087493
20	24608	232.722425138721	1.128718953752
20	24709	233.851144092473	0.034828870741923
20	24714	233.885972963215	1.2361287755939
20	24855	235.122101738809	2.587652974146
20	25147	237.709754712955	0.63327058898703
20	25232	238.343025301942	5.6323466228297
20	25904	243.975371924772	2.7919292645381
20	26182	246.76730118931	0.16642364464775
20	26198	246.933724833958	2.3020720164589
20	26445	249.235796850417	0.73043397044032
20	26534	249.966230820857	0.55942831362942
20	26598	250.525659134486	1.1145247369356
20	26693	251.640183871422	7.7004416681054
20	27517	259.340625539527	1.1580226338788
20	27629	260.498648173406	0.22054983266746
20	27682	260.719198006073	0.48925237438957
20	27735	261.208450380463	1.676266917189
20	27910	262.884717297652	1.6171553853319
20	28077	264.501872682984	0.056876622428969
20	28084	264.558749305413	4.4552533750496
20	28591	269.014002680463	1.1871978275626
20	28728	270.201200508026	4.1462577823943
20	29255	274.34745829042	0.59666821296535
20	29296	274.944126503385	2.3458639640487
20	29607	277.289990467434	1.3340809083541
20	29802	278.624071375788	5.6708145870293
20	30355	284.294885962817	0.74995955730096
20	30415	285.044845520118	5.9362801818987
20	30979	290.981125702017	4.209046022345
20	31494	295.190171724362	1.3921983115983
20	31648	296.58237003596	0.1817586608174
20	31684	296.764128696777	0.33096960441356
20	31723	297.095098301191	0.4180110982717
20	31738	297.513109399463	0.18808987329902
20	31776	297.701199272762	2.1338283748263
20	31994	299.835027647588	3.3088448164331
20	32260	303.143872464021	0.15174989919352
20	32290	303.295622363215	1.578342457474
20	32441	304.873964820689	3.5396693008181
20	32798	308.413634121507	2.3813861419453
20	33048	310.795020263452	1.0313343908615
20	33153	311.826354654314	0.16070532268595
20	33168	311.987059977	0.32050106916042
20	33191	312.30756104616	6.3093354022594
20	33806	318.616896448419	3.2170810921401
20	34135	321.833977540559	2.4820576038825
20	34419	324.316035144442	5.5974748296784
20	35066	329.91350997412	0.62048909559427
20	35120	330.533999069714	0.13441742854662
20	35137	330.668416498261	1.2834141362986
20	35281	331.95183063456	1.045752628318
20	35421	332.997583262878	3.9365869233801
20	35764	336.934170186258	2.856191308182
20	36038	339.79036149444	0.91357325432768
20	36154	340.703934748768	0.62050589145595
20	36229	341.324440640224	0.67034226557727
20	36300	341.994782905801	0.44877549071081
20	36342	342.443558396512	1.1810477920757
20	36454	343.624606188588	0.33419779021966
20	36491	343.958803978808	0.10019857076585
20	36502	344.059002549574	3.0663111097747
20	36799	347.125313659349	2.7692968085126
20	37116	349.894610467862	1.8401161751042
20	37377	351.734726642966	1.5485639553572
20	37548	353.283290598323	1.1678361403563
20	37662	354.451126738679	0.69179697347947
20	37708	355.142923712158	6.7310250202668
20	38454	361.873948732425	2.6079529243751
20	38708	364.4819016568	2.522727728042
20	38986	367.004629384842	1.4580409585865
20	39114	368.462670343428	0.32608014441643
20	39159	368.788750487844	1.3553486555193
20	39364	370.144099143363	6.2901749033642
20	40071	376.434274046727	0.67117353237637
20	40118	377.105447579103	0.32783750161087
20	40164	377.433285080714	2.934956295325
20	40546	380.368241376039	2.4304412738113
20	40786	382.79868264985	0.39065600380553
20	40839	383.189338653656	8.5060523673538
20	41856	391.69539102101	5.2782264368955
20	42462	396.973617457905	0.89436311417151
20	42544	397.867980572077	4.6883033680075
21	2166	20.415345037314	1.6930008289984
21	2374	22.108345866312	6.555322970408
21	3093	28.66366883672	2.5706339541379
21	3330	31.234302790858	2.4365319164004
21	3613	33.670834707258	0.91975014600656
21	3691	34.590584853265	2.2110083880074
21	3849	36.801593241272	0.18979450229251
21	3881	36.991387743565	3.078629730965
21	4136	40.07001747453	0.71431880392143
21	4192	40.784336278451	1.9535541483205
21	4368	42.737890426771	0.10520520905488
21	4380	42.843095635826	0.31522056061983
21	4388	43.158316196446	2.1011341863412
21	4575	45.259450382787	0.71399723068592
21	4666	45.973447613473	3.3613904511781
21	5092	49.334838064651	0.69038560935462
21	5154	50.025223674006	0.14646455031388
21	5162	50.17168822432	0.29979672222721
21	5199	50.471484946547	0.78891519979165
21	5270	51.260400146339	3.5950585981244
21	5652	54.855458744463	0.91262513042394
21	5744	55.768083874887	2.7846125499648
21	6029	58.552696424852	2.4814153901373
21	6257	61.034111814989	1.2089966143625
21	6401	62.243108429352	1.8523855902508
21	6571	64.095494019603	4.4321236078601
21	6975	68.527617627463	3.680830765289
21	7381	72.208448392752	1.9047604442877
21	7584	74.11320883704	0.26710200282889
21	7599	74.380310839869	2.6574878930562
21	7851	77.037798732925	6.7391851176411
21	8459	83.776983850566	2.1600337042841
21	8671	85.93701755485	2.1443413280997
21	8875	88.08135888295	0.77005945385056
21	8927	88.851418336801	4.6513396290088
21	9498	93.50275796581	6.5319296787811
21	10231	100.034687644591	1.9994826055473
21	10441	102.034170250138	2.1451716206455
21	10700	104.179341870783	0.89869105504353
21	10785	105.078032925827	0.21869052677526
21	10799	105.296723452602	0.88870120194656
21	10901	106.185424654549	0.57083331278613
21	10984	106.756257967335	3.5896375324073
21	11335	110.345895499742	0.059266662683549
21	11346	110.405162162426	1.7301955826721
21	11561	112.135357745098	1.3153823869044
21	11751	113.450740132002	1.6054504205772
21	11889	115.056190552579	0.71090137442582
21	11947	115.767091927005	1.9307221806759
21	12118	117.697814107681	0.37388446302481
21	12165	118.071698570706	10.793177479124
21	13308	128.86487604983	1.4603525211809
21	13467	130.325228571011	1.0534460133648
21	13593	131.378674584376	0.86257163145533
21	13727	132.241246215831	1.3964600623463
21	13854	133.637706278177	1.2656478165073
21	14004	134.903354094684	0.50018400690541
21	14097	135.403538101589	5.9715071995321
21	14761	141.375045301121	0.81085297823722
21	14886	142.185898279358	3.2859363015769
21	15223	145.471834580935	4.0333193513784
21	15684	149.505153932313	0.66426461186645
21	15766	150.169418544179	4.2756541394768
21	16176	154.445072683656	1.1620352295051
21	16316	155.607107913161	0.25843423381488
21	16353	155.865542146976	0.79943547553331
21	16403	156.664977622509	0.23376633931571
21	16425	156.898743961825	0.44946240907693
21	16490	157.348206370902	0.8636717821547
21	16554	158.211878153057	0.071382401588953
21	16562	158.283260554646	5.59212406853
21	17124	163.875384623176	1.2791098394453
21	17284	165.154494462621	1.5658100881809
21	17501	166.720304550802	0.8709027495514
21	17596	167.591207300353	0.64888201070929
21	17632	168.240089311062	1.3063260215723
21	17791	169.546415332634	4.481420632485
21	18311	174.027835965119	2.5716763693397
21	18550	176.599512334459	2.6116777271716
21	18831	179.211190061631	4.7645460722894
21	19486	183.97573613392	6.4025221363745
21	20214	190.378258270295	2.2900648546791
21	20473	192.668323124974	2.1199982364137
21	20773	194.788321361388	1.7830478632148
21	20916	196.571369224603	1.4619579175369
21	21042	198.03332714214	0.29743048911215
21	21070	198.330757631252	3.8885195411615
21	21386	202.219277172414	1.2959760468888
21	21560	203.515253219303	3.0387860565111
21	21862	206.554039275814	11.482987690318
21	23056	218.037026966132	3.9046913116722
21	23402	221.941718277804	0.0084458213164233
21	23403	221.95016409912	2.2491096177332
21	23697	224.199273716853	2.1992108664722
21	23926	226.398484583325	1.8269298422576
21	24183	228.225414425583	0.31939848661369
21	24202	228.544812912197	0.74128961400608
21	24269	229.286102526203	1.8889606726333
21	24437	231.175063198836	0.037606397809488
21	24439	231.212669596645	1.1134353288996
21	24559	232.326104925545	0.74117563198395
21	24636	233.067280557529	3.0765564203618
21	24962	236.143836977891	0.83632763877445
21	25071	236.980164616665	10.564040111854
21	26250	247.544204728519	1.0063980961353
21	26363	248.550602824654	0.68406843227955
21	26444	249.234671256934	0.39723456940662
21	26513	249.631905826341	4.8301147676993
21	26932	254.46202059404	0.26734928431774
21	26977	254.729369878358	0.57207638982552
21	27061	255.301446268184	0.38657800132966
21	27088	255.688024269514	1.5137655461264
21	27283	257.20178981564	4.1567326649095
21	27744	261.35852248055	0.40249254819548
21	27784	261.761015028745	5.1055845243638
21	28353	266.866599553109	0.96556001659834
21	28448	267.832159569707	0.70607933389713
21	28548	268.538238903604	2.1869821741723
21	28809	270.725221077776	0.15863831028376
21	28826	270.88385938806	6.7819225720513
21	29658	277.665781960111	0.58564443260906
21	29728	278.25142639272	2.1249049246674
21	29933	280.376331317387	2.974044534948
21	30261	283.350375852335	0.33109654012831
21	30294	283.681472392463	1.7486111989435
21	30445	285.430083591406	2.4578734222676
21	30661	287.887957013674	2.5314488556052
21	30912	290.419405869279	1.3311437945605
21	31061	291.75054966384	0.50796727010156
21	31105	292.258516933942	6.5386189749847
21	31891	298.797135908927	1.6108367808868
21	32043	300.407972689814	0.061876727317612
21	32047	300.469849417132	1.0096102482933
21	32148	301.479459665425	1.1914665288898
21	32220	302.670926194315	3.4095604539849
21	32541	306.0804866483	1.1056141527709
21	32644	307.186100801071	2.2718181961683
21	32894	309.457918997239	1.0138974222831
21	33025	310.471816419522	1.3761334357433
21	33154	311.847949855265	0.13267348332069
21	33167	311.980623338586	5.736009383456
21	33704	317.716632722042	0.94334779359117
21	33812	318.659980515633	1.288512400432
21	33927	319.948492916065	1.9179366062151
21	34136	321.86642952228	3.2511921296098
21	34493	325.11762165189	0.48817077661554
21	34559	325.605792428506	0.31192473302705
21	34588	325.917717161533	3.5633816347498
21	35002	329.481098796283	2.0339782373477
21	35252	331.515077033631	0.9059783624641
21	35345	332.421055396095	0.78444471999932
21	35444	333.205500116094	2.5085377263711
21	35680	335.714037842465	2.8746206212402
21	35926	338.588658463705	1.2354612444249
21	36039	339.82411970813	1.430870209977
21	36211	341.254989918107	1.6859339988698
21	36393	342.940923916977	2.3168587336402
21	36640	345.257782650617	0.6433130072191
21	36674	345.901095657836	1.0098257272007
21	36786	346.910921385037	4.007046922909
21	37277	350.917968307946	0.73523148945476
21	37365	351.653199797401	0.16372468679113
21	37393	351.816924484192	1.723325135944
21	37574	353.540249620136	2.9263798712515
21	37906	356.466629491388	1.645152434183
21	38081	358.111781925571	2.4480602912514
21	38334	360.559842216822	1.1377711333704
21	38441	361.697613350192	6.0937576002359
21	39043	367.791370950428	0.85327661167951
21	39136	368.644647562108	3.3727153380648
21	39581	372.017362900173	5.1211379917392
21	40124	377.138500891912	0.14274865221099
21	40156	377.281249544123	2.7991291608196
21	40511	380.080378704943	3.4665486459679
21	40874	383.546927350911	0.3053800657142
21	40901	383.852307416625	1.1975856617757
21	41065	385.049893078401	0.355040395427
21	41105	385.404933473828	0.25314870991874
21	41142	385.658082183747	0.00095494301214233
21	41143	385.659037126759	5.1855285212495
21	41749	390.844565648008	3.0935651985073
21	42148	393.938130846515	0.29418382421642
21	42179	394.232314670731	0.18427392713987
21	42205	394.416588597871	6.32133448459

