version 2
run Nonmonitoring-exponential-543-20210224-17:49:33-27070
attr configname Nonmonitoring-exponential
attr datetime 20210224-17:49:33
attr experiment Nonmonitoring-exponential
attr inifile aerocom.ini
attr iterationvars $0=50
attr iterationvarsf 50-
attr measurement $0=50
attr network Aerocom
attr processid 27070
attr repetition 43
attr replication #43
attr resultdir results
attr runnumber 543
attr seedset 43
param **.t 2s
param **.k 50ms
param **.X 0.05s
param **.m 1s
param **.tDistribution "\"exponential\""
param **.operationMode 1
param **.s "70 byte"
param **.dimPoolMax 10000
param **.dimPoolMin 8000
param **.nDL 16
param **.nA 1
param **.DLMaxCapacity 0
param **.trasmitting false

vector 0 Aerocom.aircraft[0].dataLink[15] tDistribution:vector ETV
attr "" ""
attr source computeTDistribution
vector 1 Aerocom.aircraft[0].dataLink[7] tDistribution:vector ETV
attr "" ""
attr source computeTDistribution
vector 2 Aerocom.aircraft[0].packetGenerator arrivalTime:vector ETV
attr "" ""
attr source computeArrivalTime
vector 3 Aerocom.aircraft[0].linkSelector waitingTime:vector ETV
attr "" ""
attr source computeWaitingTime
vector 4 Aerocom.aircraft[0].linkSelector queueLength:vector ETV
attr "" ""
attr source computeQueueLength
vector 5 Aerocom.aircraft[0].dataLink[5] actualCapacity:vector ETV
attr "" ""
attr source computeActualCapacity
vector 6 Aerocom.aircraft[0].linkSelector serviceTime:vector ETV
attr "" ""
attr source computeServiceTime
vector 7 Aerocom.aircraft[0].dataLink[6] tDistribution:vector ETV
attr "" ""
attr source computeTDistribution
vector 8 Aerocom.aircraft[0].linkSelector responseTime:vector ETV
attr "" ""
attr source computeResponseTime
vector 9 Aerocom.aircraft[0].dataLink[0] tDistribution:vector ETV
attr "" ""
attr source computeTDistribution
vector 10 Aerocom.aircraft[0].dataLink[3] tDistribution:vector ETV
attr "" ""
attr source computeTDistribution
vector 11 Aerocom.aircraft[0].dataLink[5] tDistribution:vector ETV
attr "" ""
attr source computeTDistribution
vector 12 Aerocom.aircraft[0].dataLink[9] tDistribution:vector ETV
attr "" ""
attr source computeTDistribution
vector 13 Aerocom.aircraft[0].dataLink[14] tDistribution:vector ETV
attr "" ""
attr source computeTDistribution
vector 14 Aerocom.aircraft[0].dataLink[13] tDistribution:vector ETV
attr "" ""
attr source computeTDistribution
vector 15 Aerocom.aircraft[0].dataLink[10] tDistribution:vector ETV
attr "" ""
attr source computeTDistribution
vector 16 Aerocom.aircraft[0].dataLink[12] tDistribution:vector ETV
attr "" ""
attr source computeTDistribution
vector 17 Aerocom.aircraft[0].dataLink[1] tDistribution:vector ETV
attr "" ""
attr source computeTDistribution
vector 18 Aerocom.aircraft[0].dataLink[2] tDistribution:vector ETV
attr "" ""
attr source computeTDistribution
vector 19 Aerocom.aircraft[0].dataLink[4] tDistribution:vector ETV
attr "" ""
attr source computeTDistribution
vector 20 Aerocom.aircraft[0].dataLink[8] tDistribution:vector ETV
attr "" ""
attr source computeTDistribution
vector 21 Aerocom.aircraft[0].dataLink[11] tDistribution:vector ETV
attr "" ""
attr source computeTDistribution
0	1260	10.015574259064	0.82505861074549
0	1390	10.840632869809	2.032780820843
0	1521	12.873413690652	5.0513925608824
0	2073	17.924806251534	0.16905839566413
0	2094	18.093864647198	0.38026786153479
0	2138	18.474132508733	0.97704583362057
0	2241	19.451178342354	1.355713226586
0	2392	20.80689156894	3.716731552782
0	2866	24.523623121722	0.95465177785715
0	2957	25.478274899579	2.6800113588198
0	3241	28.158286258399	2.1488299574155
0	3414	30.307116215814	0.72298209138207
0	3494	31.030098307196	2.0844558622722
0	3713	33.114554169468	0.2548156177832
0	3731	33.369369787251	3.4727928891179
0	4114	36.842162676369	5.3468220667514
0	4757	42.18898474312	0.45329505141929
0	4802	42.642279794539	0.88451514039084
0	4875	43.52679493493	0.39022828970847
0	4895	43.917023224638	0.19637446620423
0	4906	44.113397690842	2.5300726085764
0	5173	46.643470299418	3.3372961729985
0	5554	49.980766472416	3.2801357077416
0	5941	53.260902180158	4.2540646248587
0	6433	57.514966805017	1.3153444707013
0	6633	58.830311275718	1.3010332567232
0	6778	60.131344532441	1.9593332641901
0	7000	62.090677796631	5.2762322704798
0	7554	67.366910067111	2.0204519386729
0	7792	69.387362005784	4.5309315153705
0	8325	73.918293521154	0.48095246409245
0	8393	74.399245985246	0.018532773678395
0	8394	74.417778758924	0.60419310576404
0	8454	75.021971864688	3.2275780371261
0	8843	78.249549901814	0.37994622708993
0	8891	78.629496128904	1.5638358290836
0	9064	80.193331957988	1.7608286861607
0	9234	81.954160644149	2.7702260509826
0	9551	84.724386695132	0.86332400715616
0	9674	85.587710702288	0.33840813981668
0	9725	85.926118842105	1.1834792128969
0	9834	87.109598055002	6.5596656272208
0	10528	93.669263682223	0.29211356006818
0	10565	93.961377242291	1.0078688276602
0	10660	94.969246069951	0.97296439014652
0	10763	95.942210460098	6.7702174905089
0	11584	102.712427950607	2.9340948281142
0	11885	105.646522778721	0.4208476111854
0	11938	106.067370389906	1.3363286792989
0	12074	107.403699069205	1.7396360013038
0	12269	109.143335070509	0.4477389017157
0	12326	109.591073972225	2.9798442343234
0	12655	112.570918206548	2.2550092923843
0	12891	114.825927498932	1.1638146301782
0	13017	115.98974212911	1.2750907960456
0	13142	117.264832925156	0.43980510169441
0	13180	117.70463802685	1.4749852645976
0	13332	119.179623291448	15.052355889542
0	15004	134.23197918099	0.17902951567718
0	15030	134.411008696667	0.19043504515334
0	15049	134.60144374182	0.69899961346513
0	15103	135.300443355285	6.3957967647624
0	15761	141.696240120047	1.0820693002522
0	15922	142.778309420299	0.39624787095693
0	15978	143.174557291256	1.9155384927376
0	16119	145.090095783994	1.9620518819668
0	16270	147.052147665961	1.5403768303503
0	16459	148.592524496311	6.0711425708629
0	17179	154.663667067174	2.1112814816106
0	17406	156.774948548785	1.2450185269338
0	17533	158.019967075719	3.7049134587857
0	17999	161.724880534505	8.0660029574841
0	18904	169.790883491989	1.1278937646304
0	19003	170.918777256619	3.1857642870927
0	19337	174.104541543712	0.27539711587549
0	19355	174.379938659587	0.5857703231414
0	19395	174.965708982728	1.1857769125798
0	19503	176.151485895308	3.2580907317195
0	19858	179.409576627028	0.34182580865673
0	19917	179.751402435685	1.4422553269056
0	20081	181.193657762591	8.7637200773369
0	21037	189.957377839928	5.5478723759932
0	21558	195.505250215921	0.50129732216038
0	21591	196.006547538081	0.35202578160638
0	21647	196.358573319687	0.37020080297126
0	21678	196.728774122658	0.66477820236043
0	21736	197.393552325018	2.055965655452
0	21992	199.44951798047	1.132461939176
0	22103	200.581979919646	4.2906940756123
0	22638	204.872673995258	1.2049324577112
0	22762	206.077606452969	3.2835631629951
0	23155	209.361169615964	0.97344576915685
0	23253	210.334615385121	0.46995923459954
0	23302	210.804574619721	4.0833757495263
0	23752	214.887950369247	2.4530903059891
0	24015	217.341040675236	0.059658990958083
0	24030	217.400699666194	0.31705621264722
0	24066	217.717755878841	0.60390832224512
0	24127	218.321664201086	8.3307859343848
0	24926	226.652450135471	2.8733340220234
0	25250	229.525784157494	0.25475718767084
0	25264	229.780541345165	1.6027224798174
0	25403	231.383263824982	0.10440738302125
0	25434	231.487671208003	1.7126769680865
0	25627	233.200348176089	3.8521147923149
0	26044	237.052462968404	0.1093999559239
0	26051	237.161862924328	6.4985960653529
0	26663	243.660458989681	5.7281040556329
0	27271	249.388563045314	0.5235679934488
0	27317	249.912131038763	1.2847671692989
0	27499	251.196898208062	3.1011214514536
0	27816	254.298019659516	0.22272041269562
0	27829	254.520740072212	0.058027293054959
0	27833	254.578767365267	1.4695702904119
0	28027	256.048337655679	3.3064516554257
0	28361	259.354789311105	0.52686198167084
0	28418	259.881651292776	1.8255131411648
0	28697	261.707164433941	2.0473390159627
0	28891	263.754503449904	4.2320409912058
0	29415	267.98654444111	0.50173297498301
0	29446	268.488277416093	1.1960361120182
0	29620	269.684313528111	2.3183810877796
0	29859	272.002694615891	3.4855391919146
0	30230	275.488233807806	1.1289109460817
0	30287	276.617144753888	0.33131471683254
0	30322	276.948459470721	7.072346928394
0	30987	284.020806399115	4.3860400795921
0	31442	288.406846478707	7.5885782929371
0	32243	295.995424771644	0.90447292395831
0	32365	296.899897695602	0.8002246428871
0	32482	297.700122338489	4.0647310734072
0	32918	301.764853411896	1.4390641772567
0	33096	303.203917589153	2.0550941254901
0	33296	305.259011714643	1.2056602794938
0	33426	306.464671994137	0.5380536602354
0	33470	307.002725654372	1.4827702314612
0	33703	308.485495885833	1.1656753600543
0	33844	309.651171245887	5.5774606099271
0	34514	315.228631855814	0.34425070954642
0	34554	315.57288256536	0.48631444438858
0	34622	316.059197009749	0.4125605762576
0	34670	316.471757586007	0.50841416617613
0	34738	316.980171752183	1.2574616885443
0	34856	318.237633440727	0.43626142069398
0	34882	318.673894861421	3.9538825141621
0	35254	322.627777375583	0.059004039289685
0	35255	322.686781414873	1.3116416192315
0	35393	323.998423034104	0.92615087754561
0	35528	324.92457391165	1.802720008803
0	35726	326.727293920453	1.3199317964306
0	35892	328.047225716884	8.1984373106701
0	36889	336.245663027554	0.498262166435
0	36919	336.743925193989	1.1088244338693
0	37059	337.852749627858	2.1467440657805
0	37295	339.999493693639	1.3223166899823
0	37441	341.321810383621	0.87867441876216
0	37568	342.200484802383	0.09897029123588
0	37579	342.299455093619	2.7570293538934
0	37918	345.056484447512	1.5273075713289
0	38109	346.583792018841	0.52479171975083
0	38160	347.108583738592	3.4788298681218
0	38523	350.587413606714	0.51072881670851
0	38570	351.098142423423	0.62667719653595
0	38620	351.724819619959	1.3286293474143
0	38726	353.053448967373	1.4433586922854
0	38868	354.496807659658	0.43670713284111
0	38899	354.933514792499	0.47605947432816
0	38943	355.409574266827	1.7022859664441
0	39124	357.111860233271	0.80410077509423
0	39228	357.915961008365	0.41264873507856
0	39288	358.328609743444	1.4464827942485
0	39449	359.775092537692	0.1697342685289
0	39462	359.944826806221	1.3691130058667
0	39616	361.313939812088	2.6740695700685
0	39872	363.988009382157	0.8650347818878
0	39965	364.853044164045	0.16606572895932
0	39998	365.019109893004	0.28803245123263
0	40035	365.307142344237	2.0689839331455
0	40297	367.376126277382	5.4762602222159
0	40880	372.852386499598	0.43884634535805
0	40927	373.291232844956	4.7377391980656
0	41431	378.028972043022	1.9365189306363
0	41633	379.965490973658	7.4469274365238
0	42472	387.412418410182	6.6596974888327
0	43106	394.072115899015	0.17599265044931
0	43118	394.248108549464	1.0410718603817
0	43238	395.289180409846	0.30433053013764
0	43262	395.593510939984	0.93179274080215
0	43345	396.525303680786	0.33168911961103
0	43379	396.856992800397	1.240343862913
0	43506	398.09733666331	2.4413325639053
1	1261	10.042705802517	6.2921113290256
1	1878	16.334817131543	0.15168208866373
1	1900	16.486499220207	0.94316300916046
1	2015	17.429662229367	5.9335084106983
1	2731	23.363170640065	0.2609153410082
1	2753	23.624085981073	0.083758344695017
1	2760	23.707844325768	5.9336478784457
1	3368	29.641492204214	0.62601227801407
1	3407	30.267504482228	0.038945620450853
1	3413	30.306450102679	0.77634765234179
1	3505	31.082797755021	0.81686378739427
1	3585	31.899661542415	1.6179044428193
1	3742	33.517565985234	0.2147102079596
1	3759	33.732276193194	1.4657467708622
1	3919	35.198022964056	4.0972454989866
1	4388	39.295268463043	2.1643335426065
1	4652	41.459602005649	1.5755459211638
1	4851	43.035147926813	0.7742507792349
1	4892	43.809398706048	0.73051833250525
1	4964	44.539917038553	2.3213142138821
1	5186	46.861231252435	0.37394652078523
1	5209	47.23517777322	2.8588496760445
1	5573	50.094027449264	1.3731648468894
1	5757	51.467192296153	3.8571257887208
1	6160	55.324318084874	0.95409401329274
1	6283	56.278412098167	0.8468259266691
1	6375	57.125238024836	5.685628402409
1	7070	62.810866427245	0.60834291312356
1	7136	63.419209340369	4.974538409876
1	7662	68.393747750245	0.081536983501958
1	7673	68.475284733747	1.0388010041811
1	7808	69.514085737928	3.8446664742859
1	8282	73.358752212214	3.8336664761598
1	8747	77.192418688374	0.010463308404504
1	8748	77.202881996779	0.77603727558205
1	8811	77.978919272361	0.56725242921897
1	8880	78.54617170158	1.6505222669995
1	9065	80.19669396858	1.9677980626854
1	9252	82.164492031265	1.1007324602851
1	9380	83.26522449155	1.0909672661275
1	9509	84.356191757678	4.1977214671671
1	9982	88.553913224845	2.6762649017723
1	10284	91.230178126617	2.8081830186267
1	10576	94.038361145244	4.05224378562
1	11033	98.090604930864	0.23352750781808
1	11050	98.324132438682	0.33624909153799
1	11098	98.66038153022	0.55348343526031
1	11207	99.21386496548	0.38448460609847
1	11309	99.598349571578	3.5014050452442
1	11606	103.099754616822	1.669195597209
1	11789	104.768950214031	5.688371852521
1	12428	110.457322066552	2.449302080665
1	12703	112.906624147217	0.48046699419143
1	12765	113.387091141408	0.10352293769587
1	12774	113.490614079104	0.36816175785464
1	12806	113.858775836959	0.35210521590189
1	12854	114.210881052861	2.2162151267249
1	13071	116.427096179586	1.7543335258599
1	13224	118.181429705446	3.0942252531433
1	13523	121.275654958589	3.525432199749
1	13950	124.801087158338	1.9790641734255
1	14131	126.780151331764	1.9360614890221
1	14335	128.716212820786	1.1764545987691
1	14464	129.892667419555	1.1586647936538
1	14610	131.051332213209	3.081926857962
1	14983	134.133259071171	2.0174114335955
1	15187	136.150670504766	2.7447907382156
1	15488	138.895461242982	0.63623800528281
1	15534	139.531699248265	0.44334547437039
1	15590	139.975044722635	2.6387644097354
1	15903	142.61380913237	6.9518095510705
1	16522	149.565618683441	0.35146775147039
1	16571	149.917086434911	0.51950356978039
1	16634	150.436590004691	3.1323872868808
1	17032	153.568977291572	0.84664771258347
1	17125	154.415625004155	1.104181756626
1	17255	155.519806760781	2.0501140016282
1	17477	157.569920762409	5.7398586562861
1	18173	163.309779418695	0.023815680258575
1	18175	163.333595098954	1.5486870066851
1	18354	164.882282105639	1.9997522108443
1	18548	166.882034316483	0.61783144155677
1	18603	167.49986575804	5.3427319099031
1	19218	172.842597667943	2.9913176925589
1	19461	175.833915360502	1.3708983211907
1	19610	177.204813681693	2.2605732072664
1	19866	179.465386888959	1.5890227409868
1	20074	181.054409629946	1.1386982004573
1	20195	182.193107830403	6.6666542758385
1	20919	188.859762106241	0.6884129963148
1	21010	189.548175102556	1.936315748479
1	21177	191.484490851035	5.5837309845114
1	21704	197.068221835546	1.52433609945
1	21904	198.592557934996	3.4523829766187
1	22316	202.044940911615	1.5454701349887
1	22452	203.590411046604	0.25765009833114
1	22521	203.848061144935	0.14140310396285
1	22528	203.989464248898	1.7412543158395
1	22733	205.730718564738	9.9483492791127
1	23836	215.679067843851	0.17093432655517
1	23858	215.850002170406	1.612359086822
1	24042	217.462361257228	0.30595062676016
1	24073	217.768311883988	3.294995877967
1	24421	221.063307761955	0.4921191508918
1	24464	221.555426912847	1.8670190272853
1	24598	223.422445940132	0.62618640866294
1	24665	224.048632348795	0.13031525352398
1	24671	224.178947602319	0.42063698638218
1	24708	224.599584588701	0.60542133006863
1	24792	225.20500591877	3.0738589662818
1	25100	228.278864885052	0.1560639234042
1	25129	228.434928808456	3.498093442728
1	25487	231.933022251184	0.5616873310174
1	25564	232.494709582201	8.2245615778593
1	26383	240.71927116006	1.9235683793592
1	26551	242.642839539419	1.9673304999931
1	26787	244.610170039412	0.24358204295705
1	26815	244.853752082369	0.96809123385382
1	26905	245.821843316223	3.782784035656
1	27290	249.604627351879	2.9984659516832
1	27609	252.603093303562	0.85923822191309
1	27713	253.462331525475	3.5636690930107
1	28137	257.026000618486	1.6271461374105
1	28297	258.653146755896	2.3131095453559
1	28597	260.966256301252	1.1535469853427
1	28723	262.119803286595	3.6459313077102
1	29130	265.765734594305	1.6731386878446
1	29369	267.43887328215	0.27551304646799
1	29381	267.714386328618	0.085498080255635
1	29397	267.799884408874	1.0498984874696
1	29472	268.849782896344	0.11052217372695
1	29482	268.960305070071	0.040540909591351
1	29488	269.000845979662	0.30825986850005
1	29559	269.309105848162	0.19396972186624
1	29586	269.503075570028	0.36309013949145
1	29649	269.866165709519	0.75343141247873
1	29730	270.619597121998	3.8123854546177
1	30103	274.431982576616	0.24799387075548
1	30135	274.679976447371	0.26083592651997
1	30164	274.940812373891	0.53129824261882
1	30226	275.47211061651	1.4350724071005
1	30316	276.907183023611	5.6328201578939
1	30859	282.540003181505	5.2116924837818
1	31373	287.751695665287	0.99889495309788
1	31455	288.750590618385	2.2463641637293
1	31664	290.996954782114	0.64403574583194
1	31740	291.640990527946	0.30311930007299
1	31775	291.944109828019	2.8036134457941
1	32098	294.747723273813	0.41930849058719
1	32152	295.1670317644	1.5990831746524
1	32341	296.766114939052	2.3446621958303
1	32643	299.110777134882	1.2435790491763
1	32764	300.354356184058	3.413308528014
1	33154	303.767664712072	2.0653129123269
1	33348	305.832977624399	1.5484206455821
1	33529	307.381398269981	0.68690321246369
1	33606	308.068301482445	0.21672613677814
1	33662	308.285027619223	2.7624609676733
1	34051	311.047488586896	2.2115323981496
1	34313	313.259020985046	1.3054569116181
1	34458	314.564477896664	2.5962210603109
1	34746	317.160698956975	3.444241161439
1	35058	320.604940118414	0.74036083726429
1	35126	321.345300955678	1.9878527151871
1	35324	323.333153670865	0.878158264939
1	35429	324.211311935804	1.1650712437458
1	35582	325.37638317955	2.8289367050811
1	35914	328.205319884631	1.3579163983474
1	36097	329.563236282978	4.4806089325562
1	36613	334.043845215534	2.4386813706135
1	36907	336.482526586147	0.89947005131729
1	37017	337.381996637464	0.81237595801915
1	37100	338.194372595483	1.6510214063126
1	37280	339.845394001796	0.10509525203385
1	37293	339.95048925383	1.6307133198658
1	37475	341.581202573696	1.152169040622
1	37646	342.733371614318	0.2289617510107
1	37699	342.962333365329	2.6439744813843
1	37986	345.606307846713	6.2924942944854
1	38635	351.898802141198	5.2585323115462
1	39143	357.157334452744	1.5549833179235
1	39319	358.712317770667	0.0750571963647
1	39322	358.787374967032	0.54941740093448
1	39398	359.336792367966	0.22350186618056
1	39418	359.560294234147	3.7660923630136
1	39835	363.326386597161	1.7188158621397
1	40009	365.045202459301	0.62847945685103
1	40085	365.673681916152	1.1706523687757
1	40232	366.844334284928	4.6429263985634
1	40752	371.487260683491	2.6162749422419
1	40998	374.103535625733	3.3966437468572
1	41371	377.50017937259	2.5648258463811
1	41652	380.065005218971	2.1966257846583
1	41875	382.261631003629	1.6419109374274
1	42065	383.903541941056	0.60484366696003
1	42139	384.508385608016	0.44732632158098
1	42177	384.955711929597	3.3588776270404
1	42600	388.314589556637	4.8682331666759
1	43001	393.182822723313	0.62158886749788
1	43065	393.804411590811	4.9508718446953
1	43608	398.755283435506	0.47110337754497
1	43672	399.226386813051	2.2382622028855
2	1262	10.04364590616	0.03548756274
2	1268	10.0791334689	0.016174799805
2	1273	10.095308268705	0.001842997353
2	1275	10.097151266058	0.000582937898
2	1277	10.097734203956	0.00995661932
2	1282	10.107690823276	0.031444999949
2	1293	10.139135823225	0.051147613596
2	1298	10.190283436821	0.034758708827
2	1304	10.225042145648	0.000213742711
2	1306	10.225255888359	0.011201231584
2	1311	10.236457119943	0.013038403134
2	1316	10.249495523077	0.057119257507
2	1324	10.306614780584	0.023534858205
2	1329	10.330149638789	0.01623104499
2	1334	10.346380683779	0.008494769908
2	1339	10.354875453687	0.115625839823
2	1344	10.47050129351	0.015668021694
2	1349	10.486169315204	0.069563325429
2	1355	10.555732640633	0.093549398518
2	1360	10.649282039151	0.020920299884
2	1365	10.670202339035	0.023713579439
2	1370	10.693915918474	0.023100387278
2	1375	10.717016305752	0.007895841073
2	1377	10.724912146825	0.074785237989
2	1385	10.799697384814	0.047261088272
2	1391	10.846958473086	0.046367170574
2	1397	10.89332564366	0.008686490081
2	1402	10.902012133741	0.138591183821
2	1407	11.040603317562	0.112774412007
2	1412	11.153377729569	0.000404903278
2	1414	11.153782632847	0.04377778407
2	1422	11.197560416917	0.088123278385
2	1428	11.285683695302	0.128504769149
2	1434	11.414188464451	0.073512283832
2	1439	11.487700748283	0.002695110625
2	1441	11.490395858908	0.106908004399
2	1450	11.597303863307	0.063699612484
2	1455	11.661003475791	0.031045290954
2	1460	11.692048766745	0.187680301783
2	1466	11.879729068528	0.006031851196
2	1468	11.885760919724	0.035299299498
2	1476	11.921060219222	0.271962045429
2	1481	12.193022264651	0.019783783508
2	1486	12.212806048159	0.005852453062
2	1488	12.218658501221	0.082650087831
2	1497	12.301308589052	0.237116951804
2	1504	12.538425540856	0.178666471657
2	1511	12.717092012513	0.036862534603
2	1516	12.753954547116	0.194328346907
2	1523	12.948282894023	0.005295984974
2	1525	12.953578878997	0.26175201929
2	1534	13.215330898287	0.034145115453
2	1540	13.24947601374	0.070958387485
2	1545	13.320434401225	0.005662123573
2	1547	13.326096524798	0.004985341831
2	1552	13.331081866629	0.006523418602
2	1557	13.337605285231	0.024389346016
2	1565	13.361994631247	0.066644617984
2	1571	13.428639249231	0.002703142107
2	1573	13.431342391338	0.028927447102
2	1581	13.46026983844	0.062174749376
2	1586	13.522444587816	0.033341050154
2	1591	13.55578563797	0.012603365314
2	1596	13.568389003284	0.031339925718
2	1601	13.599728929002	0.020470569786
2	1606	13.620199498788	0.078617489716
2	1612	13.698816988504	0.044376126118
2	1617	13.743193114622	0.062106536304
2	1623	13.805299650926	0.05839050012
2	1628	13.863690151046	0.071943609034
2	1633	13.93563376008	0.072521773439
2	1638	14.008155533519	0.064903571661
2	1644	14.07305910518	0.002973015493
2	1646	14.076032120673	0.004257980556
2	1648	14.080290101229	0.043409530413
2	1660	14.123699631642	0.123706456435
2	1666	14.247406088077	0.023155025276
2	1671	14.270561113353	0.040360777271
2	1676	14.310921890624	0.21663357408
2	1681	14.527555464704	0.024012527335
2	1686	14.551567992039	0.043409648656
2	1692	14.594977640695	0.02262565669
2	1697	14.617603297385	0.022413395766
2	1702	14.640016693151	0.004350142602
2	1704	14.644366835753	0.163534968998
2	1713	14.807901804751	0.079253543451
2	1719	14.887155348202	0.024689552593
2	1724	14.911844900795	0.002992210243
2	1726	14.914837111038	0.007923618434
2	1732	14.922760729472	0.079281846982
2	1741	15.002042576454	0.035440997422
2	1747	15.037483573876	0.069524989347
2	1752	15.107008563223	0.103170068073
2	1757	15.210178631296	0.038291263099
2	1763	15.248469894395	0.046860793831
2	1769	15.295330688226	0.019568486645
2	1775	15.314899174871	0.17653661144
2	1783	15.491435786311	0.171072435332
2	1788	15.662508221643	0.025947370215
2	1793	15.688455591858	0.051906111165
2	1798	15.740361703023	0.003896991891
2	1800	15.744258694914	0.001814649214
2	1802	15.746073344128	0.005922639577
2	1807	15.751995983705	0.093838846534
2	1818	15.845834830239	0.025746421441
2	1823	15.87158125168	0.065198441979
2	1829	15.936779693659	0.072549990354
2	1834	16.009329684013	0.044827350531
2	1840	16.054157034544	0.032404879142
2	1845	16.086561913686	0.037824307465
2	1850	16.124386221151	0.037591593695
2	1855	16.161977814846	0.030661869424
2	1861	16.19263968427	0.022057150495
2	1866	16.214696834765	0.05755078558
2	1871	16.272247620345	0.100528927833
2	1879	16.372776548178	0.00049725732
2	1881	16.373273805498	0.003147760108
2	1883	16.376421565606	0.093009299374
2	1894	16.46943086498	0.051603944175
2	1901	16.521034809155	0.084886953793
2	1906	16.605921762948	0.036861747318
2	1911	16.642783510266	0.001612449274
2	1913	16.64439595954	0.061224868592
2	1921	16.705620828132	0.035988228858
2	1926	16.74160905699	0.008846047203
2	1931	16.750455104193	0.132673874901
2	1937	16.883128979094	0.069213511748
2	1943	16.952342490842	0.10258843566
2	1948	17.054930926502	0.11995643752
2	1953	17.174887364022	0.026235752076
2	1958	17.201123116098	0.002642120556
2	1960	17.203765236654	0.006490045746
2	1965	17.2102552824	0.035949064873
2	1973	17.246204347273	0.002650244556
2	1975	17.248854591829	0.087490500444
2	1985	17.336345092273	0.010914227043
2	1990	17.347259319316	0.031685899293
2	1995	17.378945218609	0.018996092445
2	2000	17.397941311054	0.004903010426
2	2002	17.40284432148	0.011347197221
2	2010	17.414191518701	0.169312735809
2	2017	17.58350425451	0.037498977626
2	2022	17.621003232136	0.110611666984
2	2027	17.73161489912	0.010726516282
2	2032	17.742341415402	0.007144449195
2	2034	17.749485864597	0.018898150547
2	2042	17.768384015144	0.006585087134
2	2044	17.774969102278	0.022420187074
2	2052	17.797389289352	0.01057604748
2	2057	17.807965336832	0.079008226616
2	2063	17.886973563448	0.010784350047
2	2068	17.897757913495	0.085203367402
2	2074	17.982961280897	0.051309171705
2	2079	18.034270452602	0.000343218837
2	2081	18.034613671439	0.018793076144
2	2089	18.053406747583	0.135739215967
2	2096	18.18914596355	0.031252005653
2	2101	18.220397969203	0.031276764787
2	2106	18.25167473399	0.017184325147
2	2111	18.268859059137	0.067881122848
2	2117	18.336740181985	0.033003392842
2	2122	18.369743574827	0.034245430553
2	2128	18.40398900538	0.028385966903
2	2133	18.432374972283	0.061889220471
2	2139	18.494264192754	0.068560967842
2	2144	18.562825160596	0.026320278465
2	2149	18.589145439061	0.011391899715
2	2154	18.600537338776	0.079145186696
2	2160	18.679682525472	0.04583800332
2	2166	18.725520528792	0.02883064323
2	2171	18.754351172022	0.195613422488
2	2176	18.94996459451	0.123249599144
2	2181	19.073214193654	0.011079978613
2	2187	19.084294172267	0.078066949104
2	2193	19.162361121371	0.044900654735
2	2198	19.207261776106	0.040240828676
2	2203	19.247502604782	0.080184410269
2	2210	19.327687015051	0.058432382724
2	2216	19.386119397775	0.006370476423
2	2218	19.392489874198	0.013950106445
2	2226	19.406439980643	0.007822523973
2	2231	19.414262504616	0.013924802053
2	2236	19.428187306669	0.173574440367
2	2243	19.601761747036	0.02444777376
2	2248	19.626209520796	0.0841790565
2	2253	19.710388577296	0.18254175048
2	2259	19.892930327776	0.015267309764
2	2264	19.90819763754	0.003790054569
2	2266	19.911987692109	0.041431232387
2	2275	19.953418924496	0.104536190238
2	2281	20.057955114734	0.014189785371
2	2286	20.072144900105	0.044997770101
2	2292	20.117142670206	0.014812520989
2	2297	20.131955191195	0.11619751777
2	2303	20.248152708965	0.000522442505
2	2305	20.24867515147	0.017543804742
2	2313	20.266218956212	0.006616116591
2	2315	20.272835072803	0.01312673814
2	2323	20.285961810943	0.047133514925
2	2330	20.333095325868	0.024343247341
2	2335	20.357438573209	0.124885956569
2	2340	20.482324529778	0.017823187184
2	2345	20.500147716962	0.014087312781
2	2350	20.514235029743	0.016444995026
2	2355	20.530680024769	0.022557557844
2	2360	20.553237582613	0.088035944174
2	2365	20.641273526787	0.076160833705
2	2370	20.717434360492	0.008852843373
2	2376	20.726287203865	0.01483216923
2	2381	20.741119373095	0.016534266273
2	2386	20.757653639368	0.192620700418
2	2394	20.950274339786	0.022669901227
2	2399	20.972944241013	0.003706454071
2	2401	20.976650695084	0.051211407259
2	2411	21.027862102343	0.053708258068
2	2416	21.081570360411	0.02503889894
2	2421	21.106609259351	0.093805343092
2	2428	21.200414602443	0.044270242118
2	2434	21.244684844561	0.000934417318
2	2436	21.245619261879	0.015232678722
2	2444	21.260851940601	0.045316789831
2	2450	21.306168730432	0.015276100012
2	2455	21.321444830444	0.00759485467
2	2460	21.329039685114	0.027083716083
2	2465	21.356123401197	0.177398397751
2	2471	21.533521798948	0.008165100435
2	2476	21.541686899383	0.044930188545
2	2482	21.586617087928	0.003141309516
2	2484	21.589758397444	0.050555279903
2	2492	21.640313677347	0.02319451414
2	2497	21.663508191487	0.154299229724
2	2502	21.817807421211	0.065311417315
2	2508	21.883118838526	0.015771913851
2	2513	21.898890752377	0.071120322544
2	2519	21.970011074921	0.045833538119
2	2524	22.01584461304	0.028915040706
2	2529	22.044759653746	0.029913835413
2	2534	22.074673489159	0.004086200707
2	2536	22.078759689866	0.01412025523
2	2544	22.092879945096	0.007986440951
2	2549	22.100866386047	0.050152605457
2	2556	22.151018991504	0.075484676518
2	2562	22.226503668022	0.021149975894
2	2567	22.247653643916	0.010864634242
2	2572	22.258518278158	0.021463429905
2	2577	22.279981708063	0.009135887912
2	2582	22.289117595975	0.018729709988
2	2587	22.307847305963	0.037919431293
2	2595	22.345766737256	0.008111034767
2	2600	22.353877772023	0.027514181037
2	2605	22.38139195306	0.004268201737
2	2607	22.385660154797	0.052310391393
2	2616	22.43797054619	0.003619097883
2	2618	22.441589644073	0.022063831052
2	2626	22.463653475125	0.187835089768
2	2632	22.651488564893	0.003126777853
2	2634	22.654615342746	0.010591036183
2	2639	22.665206378929	0.035284133919
2	2647	22.700490512848	0.010634832489
2	2652	22.711125345337	0.004836028007
2	2654	22.715961373344	0.029301242766
2	2662	22.74526261611	0.026540203572
2	2667	22.771802819682	0.042833402405
2	2672	22.814636222087	0.013958764286
2	2678	22.828594986373	0.195273094732
2	2685	23.023868081105	0.006091232677
2	2687	23.029959313782	0.07690494077
2	2695	23.106864254552	0.018771122616
2	2700	23.125635377168	0.043943787323
2	2705	23.169579164491	0.033754764336
2	2710	23.203333928827	0.018070931532
2	2715	23.221404860359	0.046335183662
2	2720	23.267740044021	0.079842941344
2	2726	23.347582985365	0.029965549651
2	2732	23.377548535016	0.032795289197
2	2737	23.410343824213	0.075921864882
2	2743	23.486265689095	0.001789686222
2	2745	23.488055375317	0.164836850424
2	2754	23.652892225741	0.1412032571
2	2761	23.794095482841	0.022576689751
2	2767	23.816672172592	0.036924484283
2	2772	23.853596656875	0.024381005371
2	2777	23.877977662246	0.009632644806
2	2782	23.887610307052	0.00137747106
2	2784	23.888987778112	0.081790289409
2	2792	23.970778067521	0.024793632639
2	2797	23.99557170016	0.010682403002
2	2802	24.006254103162	0.102575917277
2	2807	24.108830020439	0.142598335136
2	2812	24.251428355575	0.011781583269
2	2817	24.263209938844	0.00263748815
2	2819	24.265847426994	0.018994579612
2	2827	24.284842006606	0.008803966276
2	2832	24.293645972882	0.008153626052
2	2837	24.301799598934	0.045045517077
2	2842	24.346845116011	0.003575533514
2	2844	24.350420649525	0.054532628217
2	2854	24.404953277742	0.105884645842
2	2859	24.510837923584	0.004701105511
2	2861	24.515539029095	0.064549315381
2	2870	24.580088344476	0.045144535509
2	2875	24.625232879985	0.014235593699
2	2881	24.639468473684	0.055795302076
2	2886	24.69526377576	0.003441686563
2	2888	24.698705462323	0.04405891045
2	2896	24.742764372773	0.000492427131
2	2898	24.743256799904	0.177156726366
2	2907	24.92041352627	0.025201975669
2	2912	24.945615501939	0.02771724916
2	2917	24.973332751099	0.109120703956
2	2924	25.082453455055	0.260914827303
2	2930	25.343368282358	0.023122304754
2	2936	25.366490587112	0.004361884654
2	2938	25.370852471766	0.006617649978
2	2943	25.377470121744	0.002404052622
2	2945	25.379874174366	0.108787442296
2	2958	25.488661616662	0.030623748281
2	2964	25.519285364943	0.018644947402
2	2969	25.537930312345	0.028972193944
2	2974	25.566902506289	0.030256740848
2	2979	25.597159247137	0.111806223821
2	2985	25.708965470958	0.099332736036
2	2990	25.808298206994	0.011643640579
2	2995	25.819941847573	0.183642729347
2	3001	26.00358457692	0.153321514769
2	3007	26.156906091689	0.036865777628
2	3012	26.193771869317	0.018080769131
2	3017	26.211852638448	0.020489117164
2	3022	26.232341755612	0.007064222945
2	3024	26.239405978557	0.039940400016
2	3032	26.279346378573	0.054626505771
2	3037	26.333972884344	0.008320788297
2	3042	26.342293672641	0.057054373287
2	3047	26.399348045928	0.157884060788
2	3053	26.557232106716	0.010099271892
2	3058	26.567331378608	0.273478484862
2	3065	26.84080986347	0.022112809268
2	3070	26.862922672738	0.010140595656
2	3075	26.873063268394	0.008606865822
2	3080	26.881670134216	0.015798338878
2	3085	26.897468473094	0.000894704079
2	3087	26.898363177173	0.01252658889
2	3092	26.910889766063	0.029346892988
2	3100	26.940236659051	0.100062024548
2	3106	27.040298683599	0.03078152482
2	3112	27.071080208419	0.005848137432
2	3114	27.076928345851	0.069306407205
2	3123	27.146234753056	0.014830364604
2	3128	27.16106511766	0.045887844224
2	3133	27.206952961884	0.025196100031
2	3138	27.232149061915	0.019495476388
2	3143	27.251644538303	0.039209553163
2	3149	27.290854091466	0.133277753652
2	3156	27.424131845118	0.081229091721
2	3161	27.505360936839	0.080874576631
2	3166	27.58623551347	0.054384389466
2	3171	27.640619902936	0.046805400683
2	3176	27.687425303619	0.07287595809
2	3184	27.760301261709	0.069700187295
2	3189	27.830001449004	0.008559830937
2	3194	27.838561279941	0.04109746142
2	3200	27.879658741361	0.028392459198
2	3205	27.908051200559	0.023384429611
2	3210	27.93143563017	0.082817622328
2	3215	28.014253252498	0.054738855301
2	3220	28.068992107799	0.034250302725
2	3226	28.103242410524	0.006803306742
2	3228	28.110045717266	0.015446303475
2	3236	28.125492020741	0.068510157244
2	3242	28.194002177985	0.011818284114
2	3247	28.205820462099	0.008263776388
2	3252	28.214084238487	0.000369843005
2	3254	28.214454081492	0.02372654199
2	3262	28.238180623482	0.120934698471
2	3267	28.359115321953	0.01964547708
2	3272	28.378760799033	0.108354806749
2	3279	28.487115605782	0.240718124533
2	3285	28.727833730315	0.062957521835
2	3290	28.79079125215	0.01615496518
2	3295	28.80694621733	0.051256158572
2	3301	28.858202375902	0.15052206711
2	3306	29.008724443012	0.010598209599
2	3311	29.019322652611	0.044161118928
2	3316	29.063483771539	0.041628730165
2	3321	29.105112501704	0.0109081011
2	3326	29.116020602804	0.072589221662
2	3331	29.188609824466	0.039392051129
2	3336	29.228001875595	0.157680770813
2	3343	29.385682646408	0.002213949965
2	3345	29.387896596373	0.049435863209
2	3353	29.437332459582	0.090011529832
2	3358	29.527343989414	0.02716179528
2	3363	29.554505784694	0.216020728029
2	3370	29.770526512723	0.09717929013
2	3375	29.867705802853	0.051591351954
2	3380	29.919297154807	6.912055e-06
2	3382	29.919304066862	0.020945830049
2	3391	29.940249896911	0.007423224751
2	3393	29.947673121662	0.10968075464
2	3402	30.057353876302	0.236676314924
2	3408	30.294030191226	0.046837553015
2	3415	30.340867744241	0.043476834473
2	3420	30.384344578714	0.083636248343
2	3425	30.467980827057	0.112925343395
2	3430	30.580906170452	0.003886452823
2	3432	30.584792623275	0.048779830831
2	3440	30.633572454106	0.031881687634
2	3445	30.66545414174	0.020107801815
2	3450	30.685561943555	0.075364304281
2	3455	30.760926247836	0.05979376022
2	3462	30.820720008056	0.01279676293
2	3467	30.833516770986	0.051427829359
2	3472	30.884944600345	0.048390473532
2	3478	30.933335073877	0.032944861576
2	3484	30.966279935453	0.016543033233
2	3489	30.982822968686	0.047921079671
2	3495	31.030744048357	0.022795966621
2	3500	31.053540014978	0.13985711574
2	3506	31.193397130718	0.033825766716
2	3512	31.227222897434	0.011362906417
2	3517	31.238585803851	0.117282289632
2	3523	31.355868093483	0.056433718083
2	3528	31.412301811566	0.014240119042
2	3533	31.426541930608	0.028313527756
2	3538	31.454855458364	0.090179159609
2	3544	31.545034617973	0.023030081398
2	3549	31.568064699371	0.004358311974
2	3551	31.572423011345	0.001462942787
2	3553	31.573885954132	0.151708733877
2	3565	31.725594688009	0.00707208108
2	3567	31.732666769089	0.01061971279
2	3575	31.743286481879	0.105284321373
2	3580	31.848570803252	0.101468365762
2	3588	31.950039169014	0.014122061768
2	3593	31.964161230782	0.002374156179
2	3595	31.966535386961	0.12914764617
2	3603	32.095683033131	0.007912412551
2	3605	32.103595445682	0.013384369988
2	3613	32.11697981567	0.091918542835
2	3619	32.208898358505	0.026380755604
2	3625	32.235279114109	0.060562304426
2	3630	32.295841418535	0.011234608638
2	3635	32.307076027173	0.059107454935
2	3640	32.366183482108	0.066938468165
2	3646	32.433121950273	0.013781665659
2	3651	32.446903615932	0.068371104031
2	3657	32.515274719963	0.032965985491
2	3662	32.548240705454	0.163169976701
2	3669	32.711410682155	0.140289640854
2	3674	32.851700323009	0.038960291566
2	3680	32.890660614575	0.018823793197
2	3686	32.909484407772	0.013044959261
2	3691	32.922529367033	0.030839932691
2	3696	32.953369299724	0.03723666132
2	3702	32.990605961044	0.028322302644
2	3707	33.018928263688	0.254273171578
2	3715	33.273201435266	0.02959742891
2	3720	33.302798864176	0.030998091613
2	3725	33.333796955789	0.092352226164
2	3732	33.426149181953	0.011052915032
2	3737	33.437202096985	0.093712833878
2	3743	33.530914930863	0.029131657376
2	3748	33.560046588239	0.108046897188
2	3753	33.668093485427	0.077133618255
2	3760	33.745227103682	0.051996922536
2	3765	33.797224026218	0.035140131201
2	3770	33.832364157419	0.021780898987
2	3775	33.854145056406	0.075283820487
2	3780	33.929428876893	0.007531933913
2	3782	33.936960810806	0.046556707287
2	3790	33.983517518093	0.115975924357
2	3796	34.09949344245	0.032108577815
2	3801	34.131602020265	0.029935945562
2	3806	34.161537965827	0.020795750701
2	3811	34.182333716528	0.015714048691
2	3816	34.198047765219	0.009196379794
2	3821	34.207244145013	0.12631083965
2	3826	34.333554984663	0.003972734273
2	3828	34.337527718936	0.027035839717
2	3837	34.364563558653	0.05955118956
2	3842	34.424114748213	0.0193523702
2	3847	34.443467118413	0.057947381463
2	3852	34.501414499876	0.11425835595
2	3857	34.615672855826	0.066274853057
2	3862	34.681947708883	0.029741302639
2	3867	34.711689011522	0.022562847544
2	3872	34.734251859066	0.040759212884
2	3877	34.77501107195	0.002426159742
2	3879	34.777437231692	0.021709624656
2	3887	34.799146856348	0.02115353024
2	3892	34.820300386588	0.238201247355
2	3899	35.058501633943	0.016949194373
2	3904	35.075450828316	0.073850095666
2	3909	35.149300923982	0.037221763115
2	3914	35.186522687097	0.028567680566
2	3920	35.215090367663	0.066451979585
2	3925	35.281542347248	0.023100966385
2	3930	35.304643313633	0.008171624609
2	3935	35.312814938242	0.060962343942
2	3940	35.373777282184	0.021240000274
2	3946	35.395017282458	0.056550456379
2	3951	35.451567738837	0.018350946018
2	3956	35.469918684855	0.005665490684
2	3958	35.475584175539	0.014985729931
2	3966	35.49056990547	0.017117335059
2	3971	35.507687240529	0.013027727152
2	3976	35.520714967681	0.063047113446
2	3982	35.583762081127	0.000211373048
2	3984	35.583973454175	0.022988788361
2	3993	35.606962242536	0.074286327752
2	3999	35.681248570288	0.028246276055
2	4004	35.709494846343	0.030057374736
2	4009	35.739552221079	0.259317064815
2	4015	35.998869285894	0.111383892396
2	4022	36.11025317829	0.191433696871
2	4028	36.301686875161	0.1308395109
2	4037	36.432526386061	0.01326369059
2	4042	36.445790076651	0.016886054739
2	4047	36.46267613139	0.044933497477
2	4052	36.507609628867	0.029863230724
2	4057	36.537472859591	0.012101721935
2	4062	36.549574581526	0.076830291047
2	4067	36.626404872573	0.048446689129
2	4073	36.674851561702	0.00508104669
2	4075	36.679932608392	0.002758387161
2	4080	36.682690995553	0.026782245165
2	4088	36.709473240718	0.022124447788
2	4093	36.731597688506	0.020890122894
2	4099	36.7524878114	0.001423714519
2	4101	36.753911525919	0.008333255479
2	4106	36.762244781398	0.160114710125
2	4115	36.922359491523	0.015855739906
2	4120	36.938215231429	0.005197952713
2	4122	36.943413184142	0.030092158149
2	4130	36.973505342291	0.01815535393
2	4135	36.991660696221	0.001333843972
2	4137	36.992994540193	0.028057037509
2	4146	37.021051577702	0.025955971555
2	4151	37.047007549257	0.010010163106
2	4157	37.057017712363	0.085335397269
2	4162	37.142353109632	0.025726265237
2	4168	37.168079374869	0.000367509324
2	4170	37.168446884193	0.011300380223
2	4175	37.179747264416	0.224305546859
2	4187	37.404052811275	0.16354701571
2	4192	37.567599826985	0.009213798699
2	4197	37.576813625684	0.022205209153
2	4202	37.599018834837	0.018916832926
2	4207	37.617935667763	0.001223490968
2	4209	37.619159158731	0.089832314679
2	4218	37.70899147341	0.093804169417
2	4223	37.802795642827	0.09213365108
2	4228	37.894929293907	0.019853981854
2	4233	37.914783275761	0.016458104525
2	4238	37.931241380286	0.111650601127
2	4245	38.042891981413	0.038324476138
2	4250	38.081216457551	0.06713745014
2	4256	38.148353907691	0.004918557737
2	4258	38.153272465428	0.013167569757
2	4266	38.166440035185	0.003677567678
2	4268	38.170117602863	0.008286647751
2	4273	38.178404250614	0.012915014709
2	4281	38.191319265323	0.06874082035
2	4287	38.260060085673	0.007273904601
2	4289	38.267333990274	0.000627604859
2	4294	38.267961595133	0.00021502096
2	4296	38.268176616093	0.315694915642
2	4309	38.583871531735	0.014255031148
2	4314	38.598126562883	0.005992012122
2	4316	38.604118575005	0.00071776018
2	4318	38.604836335185	0.153430946813
2	4330	38.758267281998	0.060030155786
2	4336	38.818297437784	0.043945523759
2	4341	38.862242961543	0.027578234508
2	4346	38.889821196051	0.007754589115
2	4351	38.897575785166	0.033054157936
2	4356	38.930629943102	0.166058620334
2	4361	39.096688563436	0.014907947896
2	4366	39.111596511332	0.02669417494
2	4371	39.138290686272	0.05187766932
2	4378	39.190168355592	0.004622427722
2	4380	39.194790783314	0.206166158971
2	4391	39.400956942285	0.029575019686
2	4396	39.430531961971	0.010631459603
2	4401	39.441163421574	0.018015621322
2	4406	39.459179042896	0.070229397958
2	4412	39.529408440854	0.049657268735
2	4417	39.579065709589	0.020428374744
2	4422	39.599494084333	0.026938029724
2	4427	39.626432114057	0.000238950775
2	4429	39.626671064832	0.073327764678
2	4437	39.69999882951	0.022676277476
2	4442	39.722675106986	0.023799107971
2	4447	39.746474214957	0.021753944589
2	4452	39.768228159546	0.094972832717
2	4457	39.863200992263	0.073659765043
2	4464	39.936860757306	0.003863758275
2	4466	39.940724515581	0.05255299919
2	4475	39.993277514771	0.089313268957
2	4481	40.082590783728	0.068098214186
2	4486	40.150688997914	0.020947457726
2	4492	40.17163645564	0.007873542524
2	4494	40.179509998164	0.025903918517
2	4503	40.205413916681	0.100698312819
2	4509	40.3061122295	0.013347634514
2	4514	40.319459864014	0.029542922025
2	4520	40.349002786039	0.028096166256
2	4525	40.377098952295	0.0057566558
2	4527	40.382855608095	0.131784886315
2	4536	40.51464049441	0.021622319032
2	4541	40.536262813442	0.022293061291
2	4546	40.558555874733	0.005929045968
2	4548	40.564484920701	0.042771813914
2	4556	40.607256734615	0.014479783747
2	4561	40.621736518362	0.004575077709
2	4563	40.626311596071	0.013666581851
2	4571	40.639978177922	0.027047501367
2	4576	40.667025679289	0.053346697563
2	4581	40.720372376852	0.075292642854
2	4586	40.795665019706	0.061639124513
2	4591	40.857304144219	0.188381166892
2	4598	41.045685311111	0.015724416033
2	4603	41.061409727144	0.013935915864
2	4608	41.075345643008	0.092592337058
2	4615	41.167937980066	0.03381247237
2	4620	41.201750452436	0.057133256578
2	4625	41.258883709014	0.032273628192
2	4630	41.291157337206	0.004154869817
2	4632	41.295312207023	0.007128561802
2	4637	41.302440768825	0.058343586438
2	4647	41.360784355263	0.104791772654
2	4653	41.465576127917	0.000755147181
2	4655	41.466331275098	0.056625543003
2	4663	41.522956818101	0.059435737898
2	4668	41.582392555999	0.000486621691
2	4670	41.58287917769	0.006821106223
2	4672	41.589700283913	0.00461729495
2	4677	41.594317578863	0.025807137873
2	4688	41.620124716736	0.017370107564
2	4693	41.6374948243	0.097399920008
2	4699	41.734894744308	0.041132026608
2	4704	41.776026770916	0.043181145504
2	4710	41.81920791642	0.080380566175
2	4716	41.899588482595	0.05002880226
2	4721	41.949617284855	0.015746713039
2	4726	41.965363997894	0.081159236342
2	4732	42.046523234236	0.022361810129
2	4737	42.068885044365	0.009337081508
2	4742	42.078222125873	0.065901159492
2	4747	42.144123285365	0.026556095363
2	4752	42.170679380728	0.063835990761
2	4758	42.234515371489	0.001177927837
2	4760	42.235693299326	0.071286100213
2	4771	42.306979399539	0.034090983981
2	4777	42.34107038352	0.030012908213
2	4782	42.371083291733	0.020167277555
2	4787	42.391250569288	0.143918729215
2	4792	42.535169298503	0.015332352044
2	4797	42.550501650547	0.169603579622
2	4803	42.720105230169	0.022564924346
2	4808	42.742670154515	0.000173656296
2	4810	42.742843810811	0.065048363817
2	4819	42.807892174628	0.024781060358
2	4824	42.832673234986	0.080068424996
2	4830	42.912741659982	0.001454024256
2	4832	42.914195684238	0.003014870907
2	4835	42.917210555145	0.067034713998
2	4846	42.984245269143	0.130972460758
2	4854	43.115217729901	0.208602240295
2	4860	43.323819970196	0.052556712714
2	4865	43.37637668291	0.023459582395
2	4870	43.399836265305	0.140371746435
2	4876	43.54020801174	0.084836390335
2	4881	43.625044402075	0.057588504027
2	4887	43.682632906102	0.241120085119
2	4896	43.923752991221	0.061294616117
2	4901	43.985047607338	0.128578406576
2	4907	44.113626013914	0.014556886967
2	4912	44.128182900881	0.044425549701
2	4917	44.172608450582	0.001070669499
2	4919	44.173679120081	0.024687176058
2	4927	44.198366296139	0.00256749802
2	4929	44.200933794159	0.021057862974
2	4938	44.221991657133	0.061694858388
2	4944	44.283686515521	0.023785202661
2	4949	44.307471718182	0.065338378393
2	4954	44.372810096575	0.001389342367
2	4956	44.374199438942	0.214534961595
2	4965	44.588734400537	0.073933690874
2	4972	44.662668091411	0.09974615493
2	4977	44.762414246341	0.05987411329
2	4982	44.822288359631	0.001951686245
2	4984	44.824240045876	0.026461460845
2	4992	44.850701506721	0.033018005496
2	4997	44.883719512217	0.002625741725
2	4999	44.886345253942	0.021305312454
2	5007	44.907650566396	0.079313612636
2	5012	44.986964179032	0.008917702102
2	5018	44.995881881134	0.035097766704
2	5023	45.030979647838	0.148268381337
2	5029	45.179248029175	0.057636294309
2	5034	45.236884323484	0.131117849851
2	5040	45.368002173335	0.119172093026
2	5047	45.487174266361	0.067052732161
2	5052	45.554226998522	0.031072208234
2	5057	45.585299206756	0.04568488584
2	5062	45.630984092596	0.089171605925
2	5067	45.720155698521	0.051161995257
2	5073	45.771317693778	0.160929543701
2	5080	45.932247237479	0.039324031574
2	5085	45.971571269053	0.007368008486
2	5090	45.978939277539	0.003714100151
2	5092	45.98265337769	0.056307390544
2	5100	46.038960768234	0.007588347733
2	5105	46.046549115967	0.024298739733
2	5110	46.0708478557	0.137325910095
2	5118	46.208173765795	0.01746936323
2	5123	46.225643129025	0.006748091293
2	5125	46.232391220318	0.063231796116
2	5134	46.295623016434	0.011786396057
2	5139	46.307409412491	0.012526172188
2	5144	46.319935584679	0.01483349854
2	5149	46.334769083219	0.107454177524
2	5155	46.442223260743	0.045141642813
2	5160	46.487364903556	0.141813511088
2	5166	46.629178414644	0.002156572318
2	5168	46.631334986962	0.096092759359
2	5180	46.727427746321	0.331494588353
2	5189	47.058922334674	0.031086284606
2	5194	47.09000861928	0.046754327854
2	5199	47.136762947134	0.014991639401
2	5204	47.151754586535	0.190632280175
2	5212	47.34238686671	0.000894183613
2	5214	47.343281050323	0.011822844089
2	5219	47.355103894412	0.109582262879
2	5227	47.464686157291	0.009056134484
2	5233	47.473742291775	0.030235027998
2	5238	47.503977319773	0.003920181121
2	5240	47.507897500894	0.074544013785
2	5248	47.582441514679	0.027563086383
2	5253	47.610004601062	0.031723162238
2	5258	47.6417277633	0.001410931525
2	5260	47.643138694825	0.1403091395
2	5269	47.783447834325	0.020183583487
2	5274	47.803631417812	0.03224509043
2	5279	47.835876508242	0.171585339496
2	5287	48.007461847738	0.008995976608
2	5292	48.016457824346	0.014567301875
2	5297	48.031025126221	0.003472493921
2	5299	48.034497620142	0.015870407344
2	5307	48.050368027486	0.006251492128
2	5310	48.056619519614	0.016606345806
2	5318	48.07322586542	0.025177490809
2	5323	48.098403356229	0.036871644141
2	5328	48.13527500037	0.020579767184
2	5334	48.155854767554	0.056302661746
2	5339	48.2121574293	0.004048797443
2	5341	48.216206226743	0.041167907025
2	5351	48.257374133768	0.107921224722
2	5357	48.36529535849	0.054247367825
2	5364	48.419542726315	0.069292886335
2	5369	48.48883561265	0.023798532451
2	5374	48.512634145101	0.021264774724
2	5379	48.533898919825	0.038416335011
2	5384	48.572315254836	0.002298442564
2	5386	48.5746136974	0.11347619751
2	5396	48.68808989491	0.014849939173
2	5401	48.702939834083	0.082010223465
2	5406	48.784950057548	0.183408777902
2	5411	48.96835883545	0.045782962983
2	5416	49.014141798433	0.094887116217
2	5421	49.10902891465	0.039959336918
2	5427	49.148988251568	0.020666124582
2	5432	49.16965437615	0.036406841936
2	5437	49.206061218086	0.024041913776
2	5443	49.230103131862	0.051040257603
2	5448	49.281143389465	0.016316840036
2	5453	49.297460229501	0.004851800307
2	5455	49.302312029808	0.002655098273
2	5460	49.304967128081	0.000390461918
2	5462	49.305357589999	0.012975675302
2	5468	49.318333265301	0.02481911794
2	5479	49.343152383241	0.00776487708
2	5484	49.350917260321	0.00083755891
2	5486	49.351754819231	0.024526328158
2	5494	49.376281147389	0.084260568611
2	5499	49.460541716	0.10398277838
2	5506	49.56452449438	0.01484542214
2	5511	49.57936991652	0.017909199887
2	5516	49.597279116407	0.023404258572
2	5522	49.620683374979	0.153679421616
2	5529	49.774362796595	0.065724678873
2	5535	49.840087475468	0.052887511938
2	5543	49.892974987406	0.058873785555
2	5549	49.951848772961	0.051285016427
2	5556	50.003133789388	0.013851372909
2	5561	50.016985162297	0.053853272832
2	5566	50.070838435129	0.021680399327
2	5571	50.092518834456	0.043233876254
2	5577	50.13575271071	0.025135656355
2	5582	50.160888367065	0.013267560682
2	5587	50.174155927747	0.124161416185
2	5593	50.298317343932	0.017494513626
2	5598	50.315811857558	0.002049656356
2	5600	50.317861513914	0.014497015454
2	5608	50.332358529368	0.008294734566
2	5613	50.340653263934	0.064681772883
2	5618	50.405335036817	0.024810151574
2	5623	50.430145188391	0.062017920403
2	5628	50.492163108794	0.018397679885
2	5633	50.510560788679	0.061373010615
2	5638	50.571933799294	0.040391726758
2	5643	50.612325526052	0.03239681109
2	5648	50.644722337142	0.05852184414
2	5655	50.703244181282	0.002774849749
2	5657	50.706019031031	0.056441619977
2	5665	50.762460651008	0.107650402598
2	5671	50.870111053606	0.005016880825
2	5673	50.875127934431	0.009288122467
2	5678	50.884416056898	0.047948956462
2	5686	50.93236501336	0.022696940741
2	5691	50.955061954101	0.036054083525
2	5696	50.991116037626	0.068498763828
2	5702	51.059614801454	0.042906924224
2	5707	51.102521725678	0.002386753269
2	5709	51.104908478947	0.030821209976
2	5717	51.135729688923	0.066513410423
2	5722	51.202243099346	0.046485177022
2	5727	51.248728276368	0.005987364543
2	5729	51.254715640911	0.035080777682
2	5737	51.289796418593	0.066644770416
2	5742	51.356441189009	0.070117517073
2	5748	51.426558706082	0.03408589687
2	5753	51.460644602952	0.004977916764
2	5755	51.465622519716	0.014330251525
2	5764	51.479952771241	0.004590820776
2	5766	51.484543592017	0.060896623141
2	5774	51.545440215158	0.030775169569
2	5779	51.576215384727	9.5023918e-05
2	5781	51.576310408645	0.056988880279
2	5789	51.633299288924	0.011896515411
2	5794	51.645195804335	0.076719710508
2	5800	51.721915514843	0.088477968376
2	5807	51.810393483219	0.081957917046
2	5813	51.892351400265	0.138695193268
2	5819	52.031046593533	0.132608375417
2	5826	52.16365496895	0.122752803697
2	5831	52.286407772647	0.179286547718
2	5838	52.465694320365	0.014615757823
2	5843	52.480310078188	0.027415467344
2	5848	52.507725545532	0.02057889043
2	5853	52.528304435962	0.011869155527
2	5858	52.540173591489	0.013017641564
2	5863	52.553191233053	0.009663639738
2	5868	52.562854872791	0.045885100299
2	5875	52.60873997309	0.043083212804
2	5880	52.651823185894	0.015549785179
2	5885	52.667372971073	0.075036280139
2	5890	52.742409251212	0.018364432422
2	5895	52.760773683634	0.086359601777
2	5900	52.847133285411	0.055084140352
2	5905	52.902217425763	0.03464523938
2	5910	52.936862665143	0.024842971441
2	5915	52.961705636584	0.057166580935
2	5920	53.018872217519	0.09171825342
2	5926	53.110590470939	0.024145387911
2	5931	53.13473585885	0.116355882579
2	5936	53.251091741429	0.048588137903
2	5942	53.299679879332	0.061137916176
2	5948	53.360817795508	0.05001979467
2	5953	53.410837590178	0.042351612901
2	5959	53.453189203079	0.013712048426
2	5964	53.466901251505	0.05808987635
2	5970	53.524991127855	0.029228048462
2	5975	53.554219176317	0.078082900203
2	5980	53.63230207652	0.055621271154
2	5986	53.687923347674	0.073147385397
2	5991	53.761070733071	0.221581087502
2	5998	53.982651820573	0.034375563054
2	6003	54.017027383627	0.094432257304
2	6010	54.111459640931	0.010261937272
2	6015	54.121721578203	0.028470796377
2	6020	54.15019237458	0.053236208063
2	6025	54.203428582643	0.059450049537
2	6031	54.26287863218	0.009938281874
2	6036	54.272816914054	0.035173573419
2	6041	54.307990487473	0.040439608538
2	6046	54.348430096011	0.050430377519
2	6051	54.39886047353	0.018382705718
2	6057	54.417243179248	0.019203621983
2	6062	54.436446801231	0.013326687181
2	6067	54.449773488412	0.043339692313
2	6073	54.493113180725	0.040789634187
2	6078	54.533902814912	0.03970548742
2	6083	54.573608302332	0.004582086274
2	6085	54.578190388606	0.085619455923
2	6094	54.663809844529	0.002835668816
2	6096	54.666645513345	0.063452235494
2	6104	54.730097748839	0.026207822847
2	6109	54.756305571686	0.025887406275
2	6115	54.782192977961	0.025375150935
2	6120	54.807568128896	0.001476365402
2	6122	54.809044494298	0.008566645224
2	6127	54.817611139522	0.138908901281
2	6135	54.956520040803	0.077442053284
2	6140	55.033962094087	0.102998298148
2	6145	55.136960392235	0.011093901449
2	6150	55.148054293684	0.128833338403
2	6155	55.276887632087	0.05084199325
2	6161	55.327729625337	0.023015925532
2	6166	55.350745550869	0.047502551923
2	6171	55.398248102792	0.024294130798
2	6177	55.42254223359	0.003855019895
2	6179	55.426397253485	0.064791259763
2	6188	55.491188513248	0.040804978124
2	6193	55.531993491372	0.045186026236
2	6198	55.577179517608	0.0890568555
2	6203	55.666236373108	0.019700308434
2	6209	55.685936681542	0.018291755569
2	6214	55.704228437111	0.167525428995
2	6220	55.871753866106	0.089988167733
2	6226	55.961742033839	0.075162356784
2	6231	56.036904390623	0.008133059116
2	6237	56.045037449739	0.005462306983
2	6239	56.050499756722	0.006300528176
2	6244	56.056800284898	0.003435237083
2	6249	56.060235521981	0.014444495495
2	6254	56.074680017476	0.082687477299
2	6262	56.157367494775	0.020570148572
2	6267	56.177937643347	0.017100448375
2	6272	56.195038091722	0.022764763667
2	6277	56.217802855389	0.077427238875
2	6284	56.295230094264	0.041994978753
2	6289	56.337225073017	0.014259552429
2	6295	56.351484625446	0.028587036333
2	6300	56.380071661779	0.077828979458
2	6305	56.457900641237	0.014287216668
2	6310	56.472187857905	0.040100594416
2	6315	56.512288452321	0.130166484509
2	6321	56.64245493683	0.037550460683
2	6328	56.680005397513	0.051554019786
2	6333	56.731559417299	0.034843853239
2	6338	56.766403270538	0.019330682062
2	6343	56.7857339526	0.012703048363
2	6348	56.798437000963	0.106767531897
2	6353	56.90520453286	0.010295710487
2	6358	56.915500243347	0.133313564478
2	6364	57.048813807825	0.047020704047
2	6370	57.095834511872	0.040770591824
2	6376	57.136605103696	0.035363905356
2	6381	57.171969009052	0.018735773714
2	6386	57.190704782766	0.004892241008
2	6388	57.195597023774	0.010494361736
2	6393	57.20609138551	0.020311617756
2	6401	57.226403003266	0.025313406041
2	6406	57.251716409307	0.035338493333
2	6411	57.28705490264	0.140167132434
2	6417	57.427222035074	6.1961502e-05
2	6419	57.427283996576	0.043663189113
2	6428	57.470947185689	0.069607288766
2	6434	57.540554474455	0.007133549516
2	6437	57.547688023971	0.063039178858
2	6445	57.610727202829	0.095716480289
2	6451	57.706443683118	0.025201410251
2	6456	57.731645093369	0.019066165905
2	6461	57.750711259274	0.038193756865
2	6467	57.788905016139	0.038533569538
2	6472	57.827438585677	0.002395201346
2	6474	57.829833787023	0.016052009188
2	6482	57.845885796211	0.014489518006
2	6487	57.860375314217	0.000945655812
2	6489	57.861320970029	0.008897922151
2	6494	57.87021889218	0.008225346834
2	6499	57.878444239014	0.026365867183
2	6508	57.904810106197	0.048491201646
2	6513	57.953301307843	0.006283879066
2	6515	57.959585186909	0.016270721543
2	6523	57.975855908452	0.062422687399
2	6530	58.038278595851	0.050141390659
2	6535	58.08841998651	0.025747944008
2	6540	58.114167930518	0.030990244049
2	6545	58.145158174567	0.021493599421
2	6550	58.166651773988	0.085551013163
2	6555	58.252202787151	0.01194397969
2	6563	58.264146766841	0.025482213539
2	6568	58.28962898038	0.083944037043
2	6573	58.373573017423	0.040962972017
2	6578	58.41453598944	0.008411953607
2	6583	58.422947943047	0.09710059627
2	6589	58.520048539317	0.09428276501
2	6597	58.614331304327	0.036626626271
2	6602	58.650957930598	0.005768441457
2	6604	58.656726372055	0.050620179929
2	6612	58.707346551984	0.006039919489
2	6614	58.713386471473	0.020531830773
2	6622	58.733918302246	0.07741813606
2	6628	58.811336438306	0.02301452899
2	6634	58.834350967296	0.010427200951
2	6639	58.844778168247	0.096589297811
2	6644	58.941367466058	0.021116569791
2	6649	58.962484035849	0.064861151843
2	6654	59.027345187692	0.003964647967
2	6656	59.031309835659	0.033695179283
2	6664	59.065005014942	0.033746651103
2	6669	59.098751666045	0.023604864825
2	6674	59.12235653087	0.032724541202
2	6679	59.155081072072	0.029105582021
2	6684	59.184186654093	0.145809989614
2	6689	59.329996643707	0.004009504091
2	6691	59.334006147798	0.026898474745
2	6700	59.360904622543	0.026939099373
2	6705	59.387843721916	0.054441406623
2	6710	59.442285128539	0.006298955481
2	6712	59.44858408402	0.012486982122
2	6720	59.461071066142	0.011709667632
2	6725	59.472780733774	0.03705529235
2	6730	59.509836026124	0.046467697664
2	6735	59.556303723788	0.147939852475
2	6741	59.704243576263	0.023789671377
2	6746	59.72803324764	0.070442937748
2	6751	59.798476185388	0.14389945691
2	6756	59.942375642298	0.03048928247
2	6762	59.972864924768	0.126186644554
2	6768	60.099051569322	0.006469381389
2	6770	60.105520950711	0.028303599225
2	6779	60.133824549936	0.14266893004
2	6786	60.276493479976	0.006269056228
2	6789	60.282762536204	0.016682511781
2	6797	60.299445047985	0.024526667459
2	6802	60.323971715444	0.033246807982
2	6809	60.357218523426	0.236524359329
2	6818	60.593742882755	0.054779334695
2	6824	60.64852221745	0.043888250869
2	6829	60.692410468319	0.000405191015
2	6831	60.692815659334	0.016459528611
2	6839	60.709275187945	0.193331421948
2	6847	60.902606609893	0.032858957717
2	6853	60.93546556761	0.00891756958
2	6858	60.94438313719	0.078531748708
2	6863	61.022914885898	0.126023271178
2	6869	61.148938157076	0.006232128603
2	6871	61.155170285679	0.064778149102
2	6879	61.219948434781	0.099144486775
2	6884	61.319092921556	0.136399907051
2	6890	61.455492828607	0.003438912197
2	6892	61.458931740804	0.028598614499
2	6901	61.487530355303	0.036036984681
2	6906	61.523567339984	0.010899058232
2	6911	61.534466398216	0.018292517139
2	6917	61.552758915355	0.007130757203
2	6919	61.559889672558	0.013302645619
2	6928	61.573192318177	0.089139512377
2	6935	61.662331830554	0.185416989524
2	6944	61.847748820078	0.032786525254
2	6950	61.880535345332	0.002390606718
2	6952	61.88292595205	0.008540794292
2	6957	61.891466746342	0.03120491597
2	6965	61.922671662312	0.021400741988
2	6972	61.9440724043	0.021820113384
2	6977	61.965892517684	0.072944566196
2	6982	62.03883708388	0.02231830403
2	6990	62.06115538791	0.018628583627
2	6995	62.079783971537	0.017756802274
2	7002	62.097540773811	0.023724109305
2	7007	62.121264883116	0.043985100827
2	7012	62.165249983943	0.152056911617
2	7018	62.31730689556	0.04148269157
2	7023	62.35878958713	0.06373597131
2	7028	62.42252555844	0.007614716456
2	7030	62.430140274896	0.071887408567
2	7039	62.502027683463	0.027743573015
2	7044	62.529771256478	0.012941116177
2	7049	62.542712372655	0.027579978865
2	7054	62.57029235152	0.140289664923
2	7060	62.710582016443	0.016496265004
2	7065	62.727078281447	0.122015448839
2	7072	62.849093730286	0.005002958567
2	7074	62.854096688853	0.035309385093
2	7082	62.889406073946	0.005742969845
2	7084	62.895149043791	0.05135552216
2	7093	62.946504565951	0.075214466048
2	7099	63.021719031999	0.053756078504
2	7104	63.075475110503	0.11281402334
2	7109	63.188289133843	0.023933256935
2	7114	63.212222390778	0.027687836462
2	7119	63.23991022724	0.012343188031
2	7125	63.252253415271	0.125294396634
2	7131	63.377547811905	0.059153381505
2	7137	63.43670119341	0.021027072919
2	7142	63.457728266329	0.233565881122
2	7153	63.691294147451	0.022520251936
2	7158	63.713814399387	0.013453182907
2	7163	63.727267582294	0.021836440909
2	7168	63.749104023203	0.011719377846
2	7173	63.760823401049	0.039030025662
2	7178	63.799853426711	0.141095228122
2	7183	63.940948654833	0.089762411689
2	7190	64.030711066522	0.022460552609
2	7195	64.053171619131	0.002964064782
2	7197	64.056135683913	0.002455747842
2	7199	64.058591431755	0.120903898985
2	7210	64.17949533074	0.022506372608
2	7215	64.202001703348	0.088782287254
2	7222	64.290783990602	0.030357458127
2	7227	64.321141448729	0.078791825643
2	7232	64.399933274372	0.040907358493
2	7237	64.440840632865	0.020689453676
2	7242	64.461530086541	0.009907331976
2	7247	64.471437418517	0.035792856669
2	7252	64.507230275186	0.062273575385
2	7258	64.569503850571	0.030500199555
2	7263	64.600004050126	0.051239072674
2	7268	64.6512431228	0.009081947015
2	7273	64.660325069815	0.102698311136
2	7279	64.763023380951	0.035253170616
2	7284	64.798276551567	0.015023505097
2	7289	64.813300056664	0.042510833046
2	7295	64.85581088971	0.030263788918
2	7300	64.886074678628	0.019036878252
2	7305	64.90511155688	0.080251890967
2	7310	64.985363447847	0.017511042099
2	7315	65.002874489946	0.014141816443
2	7320	65.017016306389	0.07680916665
2	7325	65.093825473039	0.117985018796
2	7333	65.211810491835	0.027461339224
2	7338	65.239271831059	0.122418399976
2	7344	65.361690231035	0.000337163482
2	7346	65.362027394517	0.173326397617
2	7356	65.535353792134	0.013013634246
2	7361	65.54836742638	0.042183538813
2	7366	65.590550965193	0.011183158651
2	7371	65.601734123844	0.001044539042
2	7373	65.602778662886	0.008158527775
2	7378	65.610937190661	0.082771349642
2	7387	65.693708540303	0.021875588973
2	7392	65.715584129276	0.009534290405
2	7397	65.725118419681	0.006824746039
2	7399	65.73194316572	0.000796877172
2	7401	65.732740042892	0.216334956758
2	7412	65.94907499965	0.024044619006
2	7417	65.973119618656	0.175259716512
2	7423	66.148379335168	0.012243109584
2	7428	66.160622444752	0.068809180576
2	7435	66.229431625328	0.017863666439
2	7440	66.247295291767	0.072145783315
2	7447	66.319441075082	0.111736344217
2	7453	66.431177419299	0.014169616784
2	7458	66.445347036083	0.081073625234
2	7463	66.526420661317	0.023664586798
2	7468	66.550085248115	0.001472909348
2	7470	66.551558157463	0.058314805859
2	7478	66.609872963322	0.076716456771
2	7483	66.686589420093	0.020255755547
2	7489	66.70684517564	0.040540542356
2	7494	66.747385717996	0.061699724303
2	7500	66.809085442299	0.01193159118
2	7505	66.821017033479	0.083992264702
2	7511	66.905009298181	0.056645646933
2	7516	66.961654945114	0.094543028265
2	7522	67.056197973379	0.036724472365
2	7528	67.092922445744	0.057831900022
2	7533	67.150754345766	0.000598305093
2	7535	67.151352650859	0.050365291582
2	7544	67.201717942441	0.138344413911
2	7549	67.340062356352	0.067066043626
2	7555	67.407128399978	0.009820058938
2	7560	67.416948458916	0.023685857569
2	7566	67.440634316485	0.049330031749
2	7571	67.489964348234	0.080359577777
2	7577	67.570323926011	0.066328945998
2	7582	67.636652872009	0.038084954863
2	7587	67.674737826872	0.028960307342
2	7592	67.703698134214	0.010539976264
2	7597	67.714238110478	0.080785872926
2	7604	67.795023983404	0.06450379493
2	7610	67.859527778334	0.008666240751
2	7615	67.868194019085	0.115616834684
2	7621	67.983810853769	0.000486952277
2	7623	67.984297806046	0.034089735808
2	7631	68.018387541854	0.029371723898
2	7636	68.047759265752	0.019268577756
2	7641	68.067027843508	0.10429328808
2	7646	68.171321131588	0.103160110891
2	7651	68.274481242479	0.041178759804
2	7656	68.315660002283	0.091433429157
2	7663	68.40709343144	0.019472298367
2	7668	68.426565729807	0.072946881499
2	7674	68.499512611306	0.032158324495
2	7679	68.531670935801	0.00207532498
2	7681	68.533746260781	0.00581908941
2	7686	68.539565350191	0.025401625374
2	7694	68.564966975565	0.003837514442
2	7696	68.568804490007	0.010127936829
2	7701	68.578932426836	0.051462465179
2	7709	68.630394892015	0.074748551452
2	7714	68.705143443467	0.00282491469
2	7716	68.707968358157	0.02302635806
2	7724	68.730994716217	0.045478448315
2	7729	68.776473164532	0.088449982928
2	7734	68.86492314746	0.039635242947
2	7739	68.904558390407	9.0934228e-05
2	7741	68.904649324635	0.102315712871
2	7749	69.006965037506	0.096077934866
2	7756	69.103042972372	0.018941006713
2	7761	69.121983979085	0.049008563052
2	7766	69.170992542137	0.010673335644
2	7772	69.181665877781	0.096044403026
2	7777	69.277710280807	0.035844693403
2	7782	69.31355497421	0.038094586167
2	7787	69.351649560377	0.062232119695
2	7793	69.413881680072	0.011701137134
2	7798	69.425582817206	0.015324348155
2	7803	69.440907165361	0.09066720854
2	7809	69.531574373901	0.00777634846
2	7811	69.539350722361	0.015572696782
2	7819	69.554923419143	0.19919378412
2	7828	69.754117203263	0.0617704349
2	7833	69.815887638163	0.01174264972
2	7838	69.827630287883	0.133446755542
2	7843	69.961077043425	0.071165379981
2	7849	70.032242423406	0.030091934478
2	7856	70.062334357884	0.047828242347
2	7861	70.110162600231	0.018208966417
2	7867	70.128371566648	0.015060630894
2	7872	70.143432197542	0.016836642997
2	7877	70.160268840539	0.003186026212
2	7879	70.163454866751	0.116298791182
2	7887	70.279753657933	0.0163729787
2	7892	70.296126636633	0.093423544952
2	7899	70.389550181585	0.001675273533
2	7901	70.391225455118	0.031257126002
2	7910	70.42248258112	0.050852719981
2	7915	70.473335301101	0.061320335226
2	7920	70.534655636327	0.014999717976
2	7925	70.549655354303	0.013449792495
2	7930	70.563105146798	0.005012527377
2	7932	70.568117674175	0.030401839984
2	7940	70.598519514159	0.060993805873
2	7945	70.659513320032	0.099189658068
2	7953	70.7587029781	0.020444866219
2	7958	70.779147844319	0.052301784618
2	7964	70.831449628937	0.024715455531
2	7970	70.856165084468	0.024910124477
2	7975	70.881075208945	0.032247790658
2	7980	70.913322999603	0.001208381989
2	7982	70.914531381592	0.051323485409
2	7990	70.965854867001	0.040406931002
2	7995	71.006261798003	0.010045695738
2	8000	71.016307493741	0.062129072439
2	8005	71.07843656618	0.000770363729
2	8007	71.079206929909	0.004318822574
2	8009	71.083525752483	0.175262415678
2	8020	71.258788168161	0.142921969981
2	8028	71.401710138142	0.026466105114
2	8033	71.428176243256	0.053170598338
2	8038	71.481346841594	0.033004313151
2	8043	71.514351154745	0.045415874832
2	8048	71.559767029577	0.08402052571
2	8054	71.643787555287	0.045483527136
2	8059	71.689271082423	0.004439989648
2	8061	71.693711072071	0.005160633824
2	8066	71.698871705895	0.116737564056
2	8074	71.815609269951	0.007798260322
2	8076	71.823407530273	0.033361456337
2	8084	71.85676898661	0.032665335446
2	8089	71.889434322056	0.019283804515
2	8094	71.908718126571	0.032155359192
2	8100	71.940873485763	0.113546901944
2	8105	72.054420387707	0.109441171422
2	8112	72.163861559129	0.061175922413
2	8117	72.225037481542	0.002620794431
2	8119	72.227658275973	0.010780966092
2	8124	72.238439242065	0.052759368737
2	8132	72.291198610802	0.022096860982
2	8137	72.313295471784	0.047563586528
2	8142	72.360859058312	0.015971749639
2	8148	72.376830807951	0.023098948944
2	8153	72.399929756895	0.006837412524
2	8155	72.406767169419	0.130031831877
2	8164	72.536799001296	0.009921546395
2	8169	72.546720547691	0.005305360276
2	8171	72.552025907967	0.008343021158
2	8176	72.560368929125	0.07615999999
2	8185	72.636528929115	0.050166449038
2	8191	72.686695378153	0.030976412289
2	8196	72.717671790442	0.006284858172
2	8198	72.723956648614	0.034272210188
2	8206	72.758228858802	0.005162072788
2	8208	72.76339093159	0.018220380036
2	8216	72.781611311626	0.035783836583
2	8221	72.817395148209	0.008075229022
2	8226	72.825470377231	0.027625879245
2	8231	72.853096256476	0.013158219162
2	8236	72.866254475638	0.055116685718
2	8242	72.921371161356	0.054004508837
2	8247	72.975375670193	0.006518376034
2	8249	72.981894046227	0.001717127458
2	8254	72.983611173685	0.004766601719
2	8256	72.988377775404	0.028100604787
2	8267	73.016478380191	0.018483190207
2	8272	73.034961570398	0.385198863471
2	8284	73.420160433869	0.01990874464
2	8290	73.440069178509	0.159553981574
2	8295	73.599623160083	0.004878252002
2	8297	73.604501412085	0.005335985573
2	8302	73.609837397658	0.075918115406
2	8310	73.685755513064	0.101115042129
2	8315	73.786870555193	0.019912008077
2	8320	73.80678256327	0.139240272797
2	8326	73.946022836067	0.042249672978
2	8331	73.988272509045	0.073629438405
2	8336	74.06190194745	0.063907866164
2	8341	74.125809813614	0.001833956182
2	8343	74.127643769796	0.001164728271
2	8345	74.128808498067	0.021960812314
2	8356	74.150769310381	0.027337003047
2	8361	74.178106313428	0.034221600452
2	8366	74.21232791388	0.009712536977
2	8372	74.222040450857	0.007119090028
2	8374	74.229159540885	0.105622439481
2	8383	74.334781980366	0.043288687337
2	8388	74.378070667703	0.055051043653
2	8395	74.433121711356	0.00865971551
2	8400	74.441781426866	0.03427890426
2	8405	74.476060331126	0.025359047597
2	8410	74.501419378723	0.298242556978
2	8418	74.799661935701	0.03826815749
2	8424	74.837930093191	0.079586008775
2	8431	74.917516101966	0.002124954986
2	8433	74.919641056952	0.015543728991
2	8441	74.935184785943	0.034265201935
2	8449	74.969449987878	0.054003103844
2	8455	75.023453091722	0.065004140451
2	8461	75.088457232173	0.052402276124
2	8469	75.140859508297	0.049575980036
2	8474	75.190435488333	0.013262384897
2	8479	75.20369787323	0.020134288899
2	8485	75.223832162129	0.031847978151
2	8490	75.25568014028	0.015458696372
2	8495	75.271138836652	0.001348924407
2	8497	75.272487761059	0.03175000618
2	8506	75.304237767239	0.0616700185
2	8511	75.365907785739	0.021497112587
2	8516	75.387404898326	0.054342913332
2	8521	75.441747811658	0.019743752252
2	8526	75.46149156391	0.059396451899
2	8531	75.520888015809	0.018281952742
2	8536	75.539169968551	0.000586166755
2	8538	75.539756135306	0.000822017707
2	8540	75.540578153013	0.010127550166
2	8545	75.550705703179	0.021010738524
2	8556	75.571716441703	0.010384050404
2	8561	75.582100492107	0.173325167685
2	8567	75.755425659792	0.043649296913
2	8572	75.799074956705	0.014767664412
2	8577	75.813842621117	0.031575562888
2	8582	75.845418184005	0.02380822311
2	8587	75.869226407115	0.013510537203
2	8592	75.882736944318	0.064204949178
2	8597	75.946941893496	0.014864961169
2	8602	75.961806854665	0.047819562668
2	8608	76.009626417333	0.027748076777
2	8614	76.03737449411	0.003709277813
2	8616	76.041083771923	0.035499489568
2	8625	76.076583261491	0.00214976113
2	8627	76.078733022621	0.014112715087
2	8635	76.092845737708	0.070180510422
2	8640	76.16302624813	0.0124534215
2	8645	76.17547966963	0.0371798724
2	8650	76.21265954203	0.04892006231
2	8655	76.26157960434	0.023162209409
2	8660	76.284741813749	0.001987510469
2	8662	76.286729324218	0.135909868467
2	8670	76.422639192685	0.011693050409
2	8675	76.434332243094	0.010580909946
2	8680	76.44491315304	0.120176435364
2	8686	76.565089588404	0.010508917743
2	8691	76.575598506147	0.011792996364
2	8696	76.587391502511	0.109004281065
2	8701	76.696395783576	0.071292266465
2	8707	76.767688050041	0.0053320258
2	8709	76.773020075841	0.024854366866
2	8717	76.797874442707	0.183547567704
2	8724	76.981422010411	0.073797909085
2	8731	77.055219919496	0.076916016215
2	8737	77.132135935711	0.017855963147
2	8742	77.149991898858	0.153758372972
2	8750	77.30375027183	0.007629625948
2	8755	77.311379897778	0.054629467348
2	8760	77.366009365126	0.010011613233
2	8765	77.376020978359	0.016543882063
2	8770	77.392564860422	0.050712416861
2	8776	77.443277277283	0.03030185409
2	8781	77.473579131373	0.086058781046
2	8787	77.559637912419	0.196520053575
2	8793	77.756157965994	0.160203980518
2	8801	77.916361946512	0.043912038762
2	8806	77.960273985274	0.02111111249
2	8812	77.981385097764	0.007209892857
2	8814	77.988594990621	0.072624597368
2	8823	78.061219587989	0.094886766288
2	8828	78.156106354277	0.033680506867
2	8833	78.189786861144	0.035538700891
2	8838	78.225325562035	0.06494073813
2	8844	78.290266300165	0.12072710629
2	8849	78.410993406455	0.009812638149
2	8854	78.420806044604	0.005191186888
2	8856	78.425997231492	0.037070348523
2	8864	78.463067580015	0.046603355549
2	8870	78.509670935564	0.02788894091
2	8875	78.537559876474	0.066055005292
2	8881	78.603614881766	0.014817419526
2	8886	78.618432301292	0.020890197801
2	8892	78.639322499093	0.050747889071
2	8898	78.690070388164	0.017942284703
2	8903	78.708012672867	0.006765529666
2	8905	78.714778202533	0.007779746822
2	8910	78.722557949355	0.030152728849
2	8918	78.752710678204	0.087201455296
2	8924	78.8399121335	0.24825341367
2	8932	79.08816554717	0.0583888607
2	8937	79.14655440787	0.000675333723
2	8939	79.147229741593	0.138716814969
2	8949	79.285946556562	0.021330303695
2	8955	79.307276860257	0.003497627804
2	8957	79.310774488061	0.001225079019
2	8959	79.31199956708	0.008926103172
2	8964	79.320925670252	0.067380850859
2	8975	79.388306521111	0.017865712607
2	8980	79.406172233718	0.154551591537
2	8986	79.560723825255	0.044891140653
2	8992	79.605614965908	0.011154577567
2	8997	79.616769543475	0.026404142244
2	9002	79.643173685719	0.012251573596
2	9007	79.655425259315	0.046846655916
2	9012	79.702271915231	0.015387899278
2	9017	79.717659814509	0.030500086879
2	9023	79.748159901388	0.137079918367
2	9033	79.885239819755	0.006013873823
2	9035	79.891253693578	0.135148117613
2	9043	80.026401811191	0.011707727314
2	9048	80.038109538505	0.091618665967
2	9054	80.129728204472	0.033219775536
2	9059	80.162947980008	0.042428671261
2	9066	80.205376651269	0.011597402319
2	9071	80.216974053588	0.009573988608
2	9076	80.226548042196	0.054535386701
2	9082	80.281083428897	0.180889025372
2	9088	80.461972454269	0.000848618358
2	9090	80.462821072627	0.074670176517
2	9098	80.537491249144	0.100147806827
2	9103	80.637639055971	0.00846247667
2	9105	80.646101532641	0.025890169829
2	9114	80.67199170247	0.159614845921
2	9120	80.831606548391	0.014230754957
2	9125	80.845837303348	0.027899545282
2	9130	80.87373684863	0.044529725211
2	9135	80.918266573841	0.081563368964
2	9140	80.999829942805	0.003204339409
2	9142	81.003034282214	0.011771246224
2	9147	81.014805528438	0.01188271475
2	9155	81.026688243188	0.180102274163
2	9162	81.206790517351	0.199369925095
2	9167	81.406160442446	0.007548825179
2	9170	81.413709267625	0.068841158113
2	9178	81.482550425738	0.112271426326
2	9183	81.594821852064	0.038161979246
2	9188	81.63298383131	0.01081694046
2	9193	81.64380077177	0.03859291409
2	9198	81.68239368586	0.053447586076
2	9203	81.735841271936	0.006420312004
2	9205	81.74226158394	0.00543183777
2	9210	81.74769342171	0.001420649739
2	9212	81.749114071449	0.186328755456
2	9225	81.935442826905	0.016075050843
2	9230	81.951517877748	0.001226652757
2	9232	81.952744530505	0.00711989287
2	9235	81.959864423375	0.113379736226
2	9246	82.073244159601	0.093462463116
2	9253	82.166706622717	0.13016985143
2	9259	82.296876474147	0.056781957655
2	9264	82.353658431802	0.029569852045
2	9270	82.383228283847	0.012503966367
2	9275	82.395732250214	0.082766364236
2	9281	82.47849861445	0.081189770322
2	9287	82.559688384772	0.111640857638
2	9293	82.67132924241	0.086012892731
2	9298	82.757342135141	0.036371410138
2	9303	82.793713545279	0.066170777637
2	9309	82.859884322916	0.022524917626
2	9315	82.882409240542	0.055868433049
2	9320	82.938277673591	0.046135450341
2	9325	82.984413123932	0.006232252824
2	9327	82.990645376756	0.006603146739
2	9332	82.997248523495	0.005110680714
2	9337	83.002359204209	0.033165356622
2	9345	83.035524560831	0.002208235374
2	9347	83.037732796205	0.01715397581
2	9355	83.054886772015	0.029793356706
2	9360	83.084680128721	0.017131325226
2	9365	83.101811453947	0.015945256066
2	9370	83.117756710013	0.068688721398
2	9375	83.186445431411	0.080521272011
2	9381	83.266966703422	0.113273883752
2	9388	83.380240587174	0.047800836674
2	9394	83.428041423848	0.04613886643
2	9400	83.474180290278	0.017928758727
2	9406	83.492109049005	0.020130179769
2	9411	83.512239228774	0.086236226248
2	9417	83.598475455022	0.188966364154
2	9424	83.787441819176	0.024579047123
2	9429	83.812020866299	0.028259064273
2	9434	83.840279930572	0.01966593199
2	9439	83.859945862562	0.09972591491
2	9444	83.959671777472	0.016403691533
2	9449	83.976075469005	0.037175895024
2	9454	84.013251364029	0.007372710508
2	9456	84.020624074537	0.002197010202
2	9461	84.022821084739	0.00641543457
2	9463	84.029236519309	0.057413978626
2	9474	84.086650497935	0.009870235965
2	9479	84.0965207339	0.01296618132
2	9484	84.10948691522	0.010511434633
2	9489	84.119998349853	0.158135479206
2	9496	84.278133829059	0.042235492765
2	9501	84.320369321824	0.033712436733
2	9507	84.354081758557	0.053360162791
2	9513	84.407441921348	0.126690875073
2	9518	84.534132796421	0.018520557567
2	9525	84.552653353988	0.024502414645
2	9531	84.577155768633	0.037755509523
2	9536	84.614911278156	0.009887639166
2	9541	84.624798917322	0.075591583488
2	9546	84.70039050081	0.133598930463
2	9554	84.833989431273	0.009710473456
2	9559	84.843699904729	0.002311417072
2	9561	84.846011321801	0.018378773616
2	9569	84.864390095417	0.048364854861
2	9574	84.912754950278	0.078290657522
2	9579	84.9910456078	0.03886448357
2	9584	85.02991009137	0.078343448501
2	9591	85.108253539871	0.013909054609
2	9596	85.12216259448	0.044598893198
2	9601	85.166761487678	0.024198860654
2	9606	85.190960348332	0.078598766822
2	9612	85.269559115154	0.048180346061
2	9617	85.317739461215	0.010381767045
2	9622	85.32812122826	0.059516731258
2	9627	85.387637959518	0.012606896054
2	9632	85.400244855572	0.032312552585
2	9637	85.432557408157	0.040413817421
2	9642	85.472971225578	0.014233197745
2	9647	85.487204423323	0.000804178574
2	9649	85.488008601897	0.017773743763
2	9657	85.50578234566	0.01393293804
2	9662	85.5197152837	0.020405837399
2	9667	85.540121121099	0.041895052076
2	9672	85.582016173175	0.040313640796
2	9678	85.622329813971	0.077288182254
2	9684	85.699617996225	0.009085863146
2	9689	85.708703859371	0.04461338832
2	9694	85.753317247691	0.01334645739
2	9699	85.766663705081	0.002983837274
2	9701	85.769647542355	0.021097922129
2	9709	85.790745464484	0.031114418334
2	9714	85.821859882818	0.039174397699
2	9719	85.861034280517	0.109117681991
2	9726	85.970151962508	0.100253710454
2	9732	86.070405672962	0.011566341455
2	9737	86.081972014417	0.020522788544
2	9742	86.102494802961	0.024529153881
2	9747	86.127023956842	0.052531232076
2	9752	86.179555188918	0.091444795974
2	9757	86.270999984892	0.06974286372
2	9762	86.340742848612	0.139926050031
2	9767	86.480668898643	0.049505859569
2	9772	86.530174758212	0.006908161132
2	9774	86.537082919344	0.026550136458
2	9782	86.563633055802	0.038280409974
2	9787	86.601913465776	0.032511114115
2	9792	86.634424579891	0.001710781335
2	9794	86.636135361226	0.000839834947
2	9796	86.636975196173	0.009649120062
2	9801	86.646624316235	0.202068310562
2	9812	86.848692626797	0.122465387368
2	9818	86.971158014165	0.013756636851
2	9823	86.984914651016	0.082652413768
2	9829	87.067567064784	0.081210647936
2	9835	87.14877771272	0.0182109001
2	9840	87.16698861282	0.009336281804
2	9845	87.176324894624	0.053823839825
2	9850	87.230148734449	0.013217568611
2	9855	87.24336630306	0.035629005107
2	9860	87.278995308167	0.018936651952
2	9865	87.297931960119	0.025245520855
2	9870	87.323177480974	0.228397873876
2	9876	87.55157535485	0.033065099642
2	9882	87.584640454492	0.090822416656
2	9887	87.675462871148	0.028613650644
2	9892	87.704076521792	0.020978456497
2	9897	87.725054978289	0.012178014368
2	9902	87.737232992657	0.235655785456
2	9909	87.972888778113	0.029646748759
2	9914	88.002535526872	0.009477884035
2	9919	88.012013410907	0.003096296378
2	9921	88.015109707285	0.023825183931
2	9929	88.038934891216	0.095645988027
2	9934	88.134580879243	0.026533419392
2	9939	88.161114298635	0.063553602103
2	9945	88.224667900738	0.017655062888
2	9950	88.242322963626	0.004355833783
[...]
19	31336	287.50989125887	3.2782280720262
19	31639	290.788119330896	1.1432932706244
19	31774	291.93141260152	1.7772237383638
19	31985	293.708636339884	2.5952193387908
19	32278	296.303855678675	0.43924823731431
19	32337	296.743103915989	0.47685452384048
19	32409	297.219958439829	4.2832605046232
19	32896	301.503218944452	0.28506718263806
19	32920	301.78828612709	3.8511427938638
19	33322	305.639428920954	2.8278664591451
19	33702	308.467295380099	4.2410638016622
19	34255	312.708359181761	1.5635965385062
19	34431	314.271955720267	1.931901709727
19	34638	316.203857429994	1.3851275327175
19	34784	317.588984962711	1.8338057014639
19	34926	319.422790664175	0.45790171527163
19	34975	319.880692379447	0.28825069545871
19	35018	320.168943074906	1.3610277257997
19	35146	321.529970800706	0.35260383158357
19	35174	321.88257463229	0.52155337725013
19	35223	322.40412800954	0.024509524451342
19	35227	322.428637533991	6.0207721269944
19	35938	328.449409660985	1.7312681312017
19	36184	330.180677792187	0.14020640349303
19	36220	330.32088419568	0.62955252154054
19	36286	330.950436717221	0.41392922571314
19	36325	331.364365942934	0.927768010897
19	36418	332.292133953831	0.84616934502336
19	36480	333.138303298854	0.53424937317699
19	36537	333.672552672031	0.51576162859785
19	36631	334.188314300629	4.7100017576071
19	37168	338.898316058236	2.3032208794631
19	37431	341.201536937699	5.407149207819
19	38110	346.608686145518	4.8910255962501
19	38612	351.499711741768	0.33815573888336
19	38628	351.837867480651	0.62172703213086
19	38686	352.459594512782	1.0190954195212
19	38791	353.478689932303	0.73010881979028
19	38848	354.208798752093	1.4954135035576
19	38996	355.704212255651	0.62924213907809
19	39060	356.333454394729	0.11638106638456
19	39067	356.449835461114	5.3154216215278
19	39652	361.765257082642	0.059577107510639
19	39657	361.824834190153	0.48131679832493
19	39729	362.306150988478	12.083001972425
19	41047	374.389152960903	2.4294315879435
19	41276	376.818584548847	1.1546787364537
19	41429	377.973263285301	1.2599405161918
19	41540	379.233203801493	2.8940872663113
19	41862	382.127291067804	0.99191588758704
19	41961	383.119206955391	2.0221048261519
19	42209	385.141311781543	0.40231237282293
19	42269	385.543624154366	1.5113737045529
19	42434	387.054997858919	0.670081142999
19	42513	387.725079001918	1.5738124815342
19	42650	389.298891483452	3.2855084198398
19	42952	392.584399903292	0.129058682142
19	42958	392.713458585434	2.5386376913328
19	43237	395.252096276767	0.42600896019742
19	43277	395.678105236964	0.86000071268259
19	43350	396.538105949647	0.088279442935355
19	43357	396.626385392582	4.3854885866844
20	1728	14.917134006137	0.4209923009368
20	1780	15.338126307074	0.8354249707245
20	1860	16.173551277799	2.1128743999244
20	2116	18.286425677723	2.7136242813729
20	2410	21.000049959096	0.90081627731557
20	2515	21.900866236412	1.3968587324222
20	2725	23.297724968834	3.966205580181
20	3148	27.263930549015	2.674517028516
20	3390	29.938447577531	1.2555259641729
20	3508	31.193973541704	2.8789115372156
20	3795	34.07288507892	2.0834667069838
20	4027	36.156351785904	0.18645413490376
20	4035	36.342805920808	5.6776016470507
20	4731	42.020407567859	0.2437334373401
20	4769	42.264141005199	1.6236069123588
20	4894	43.887747917558	2.271716511093
20	5116	46.159464428651	0.48446060957613
20	5174	46.643925038227	1.6035541339834
20	5350	48.24747917221	1.61940491312
20	5541	49.86688408533	7.2264418614239
20	6369	57.093325946754	0.67290988682876
20	6466	57.766235833583	3.1100531679318
20	6845	60.876289001515	0.26896354898799
20	6868	61.145252550503	0.68553499244201
20	6943	61.830787542945	0.097842353085289
20	6967	61.92862989603	0.53470961524414
20	7038	62.463339511274	1.0681320516315
20	7149	63.531471562906	1.9270026685337
20	7355	65.45847423144	2.508978840668
20	7620	67.967453072108	4.6391833025815
20	8184	72.606636374689	0.062294562221009
20	8190	72.66893093691	0.60636171047188
20	8281	73.275292647382	1.0417518360032
20	8382	74.317044483385	0.89808226391647
20	8484	75.215126747301	3.4630956526432
20	8897	78.678222399944	1.3633806376749
20	9050	80.041603037619	3.6267235917211
20	9423	83.66832662934	0.65744017660003
20	9503	84.32576680594	0.23069286676152
20	9527	84.556459672702	5.4627731877429
20	10157	90.019232860445	5.0832750274744
20	10676	95.102507887919	1.8684665552268
20	10897	96.970974443146	4.8947108120552
20	11521	101.865685255201	0.36888046328447
20	11562	102.234565718485	0.52838089060546
20	11595	102.76294660909	2.6823579362021
20	11854	105.445304545292	1.2605830059081
20	12005	106.7058875512	1.2135800412041
20	12137	107.919467592404	1.4370921596878
20	12304	109.356559752092	1.3984202512196
20	12459	110.754980003312	0.53159730418757
20	12517	111.2865773075	2.1381336761654
20	12771	113.424710983665	0.47603317239434
20	12807	113.900744156059	2.1209755589807
20	13023	116.02171971504	0.10852967313859
20	13039	116.130249388179	1.283452290606
20	13153	117.413701678785	7.8425060045759
20	13997	125.256207683361	1.3988698106048
20	14119	126.655077493966	0.15637644616938
20	14137	126.811453940135	0.32750812426872
20	14172	127.138962064404	3.0923059068043
20	14515	130.231267971208	1.2695256595054
20	14663	131.500793630713	0.83249585383264
20	14744	132.333289484546	1.6448340554869
20	14969	133.978123540033	2.8702856279953
20	15295	136.848409168028	1.6976611015838
20	15461	138.546070269612	2.7209295167285
20	15728	141.26699978634	2.4717391635918
20	16010	143.738738949932	3.0478241738102
20	16256	146.786563123742	0.41954374859515
20	16289	147.206106872337	0.85387469275508
20	16410	148.059981565092	2.3993931776599
20	16642	150.459374742752	0.76121208541552
20	16753	151.220586828168	0.60323918539807
20	16812	151.823826013566	2.0936927091856
20	17064	153.917518722752	6.3143127628275
20	17795	160.23183148558	0.11644969937147
20	17803	160.348281184951	1.1166248918858
20	17972	161.464906076837	2.2996351554584
20	18225	163.764541232295	0.84637273622462
20	18332	164.61091396852	1.2312748161548
20	18452	165.842188784675	0.84109139552833
20	18536	166.683280180203	0.83023906515952
20	18606	167.513519245363	0.7125582143081
20	18669	168.226077459671	4.3875658687092
20	19191	172.61364332838	6.3164661952948
20	19792	178.930109523675	0.41016762435383
20	19847	179.340277148029	1.6259809721633
20	20068	180.966258120192	1.3022545148332
20	20206	182.268512635025	0.24042486599528
20	20235	182.50893750102	1.4380629541125
20	20375	183.947000455132	0.93719514913645
20	20461	184.884195604268	4.2422248663578
20	20947	189.126420470626	0.95199642878799
20	21043	190.078416899414	1.2457585731536
20	21165	191.324175472568	3.925524837219
20	21545	195.249700309787	1.0469189632308
20	21634	196.296619273018	3.4105608090654
20	22012	199.707180082083	2.9943256258112
20	22357	202.701505707894	0.79848378682322
20	22441	203.499989494717	0.18571317030075
20	22473	203.685702665018	0.33410596780798
20	22530	204.019808632826	1.5969969484014
20	22727	205.616805581227	2.0389016524941
20	22933	207.655707233721	1.0558756942714
20	23081	208.711582927992	3.2974705685794
20	23428	212.009053496571	0.097858162300776
20	23431	212.106911658872	1.0279949675573
20	23575	213.134906626429	0.96920464922154
20	23665	214.104111275651	1.6731978334505
20	23847	215.777309109101	0.33207116496426
20	23880	216.109380274065	5.8962281433201
20	24502	222.005608417385	1.0345394982978
20	24577	223.040147915683	3.0714036516127
20	24883	226.111551567296	3.2017685467723
20	25232	229.313320114068	6.2361528527016
20	25899	235.54947296677	0.51492798318438
20	25959	236.064400949954	0.25709021324895
20	25993	236.321491163203	1.0487006519005
20	26074	237.370191815104	3.1529695426408
20	26375	240.523161357745	7.4676698301084
20	27110	247.990831187853	2.8849887099351
20	27459	250.875819897788	1.213424837281
20	27587	252.089244735069	2.9489604110804
20	27883	255.038205146149	0.42282928509182
20	27956	255.461034431241	0.72180837704792
20	28028	256.182842808289	0.57869569291177
20	28101	256.761538501201	0.12975341354671
20	28115	256.891291914748	0.23918982181631
20	28138	257.130481736564	1.6176364237764
20	28304	258.74811816034	6.5568200997959
20	29082	265.304938260136	1.9599873425576
20	29361	267.264925602694	0.53679464395101
20	29398	267.801720246645	1.2626808421977
20	29495	269.064401088843	1.9197417287333
20	29771	270.984142817576	3.2221312688075
20	30068	274.206274086383	0.95984157568104
20	30193	275.166115662064	4.9549406020309
20	30628	280.121056264095	1.3597283113649
20	30751	281.48078457546	3.7428656468978
20	31113	285.223650222358	1.3915171546934
20	31233	286.615167377051	0.029005161774593
20	31235	286.644172538826	3.8834076687154
20	31615	290.527580207541	0.75580519177147
20	31708	291.283385399312	2.0969626326231
20	31923	293.380348031935	0.61546250107086
20	32002	293.995810533006	3.8281781723944
20	32503	297.8239887054	2.9485158013351
20	32811	300.772504506735	0.62214402836401
20	32879	301.394648535099	0.45795789686368
20	32931	301.852606431963	1.3109916591505
20	33088	303.163598091114	5.5829128630134
20	33754	308.746510954127	0.14203754781484
20	33777	308.888548501942	0.20007846781117
20	33793	309.088626969753	5.2732891562967
20	34436	314.36191612605	3.4466885401066
20	34813	317.808604666157	2.7138248720814
20	35044	320.522429538238	0.07490916993197
20	35057	320.59733870817	4.3592856997541
20	35540	324.956624407924	0.95328164010311
20	35648	325.909906048027	0.32199041854073
20	35685	326.231896466568	4.4957462373816
20	36279	330.72764270395	1.3590997204145
20	36407	332.086742424365	0.91300208498196
20	36474	332.999744509347	0.3028962432048
20	36508	333.302640752552	0.80579598722685
20	36623	334.108436739779	1.7702952251428
20	36843	335.878731964922	1.943421699287
20	37058	337.822153664209	3.3439026902774
20	37428	341.166056354486	5.0885535749655
20	38055	346.254609929451	0.49709554662728
20	38127	346.751705476078	2.5934367713173
20	38385	349.345142247395	0.76924067936266
20	38463	350.114382926758	3.3030517073168
20	38772	353.417434634075	0.82761366462096
20	38850	354.245048298696	0.17934331014006
20	38866	354.424391608836	4.8088031079105
20	39375	359.233194716746	0.2209490337527
20	39412	359.454143750499	0.35374233026402
20	39451	359.807886080763	4.0753176438361
20	39867	363.883203724599	1.5869273539513
20	40056	365.47013107855	2.7453989150566
20	40372	368.215529993607	0.82552367133566
20	40468	369.041053664943	1.516976639225
20	40649	370.558030304168	0.067828051454947
20	40655	370.625858355623	4.4487478715717
20	41100	375.074606227195	2.2039461070365
20	41336	377.278552334232	0.40716942717577
20	41391	377.685721761408	0.67552421590269
20	41462	378.361245977311	1.1625532353718
20	41571	379.523799212683	1.0294795089868
20	41720	380.55327872167	0.64360322770022
20	41773	381.19688194937	3.3730116447053
20	42150	384.569893594075	5.1260370163026
20	42673	389.695930610378	1.201582969427
20	42790	390.897513579805	1.0434476723163
20	42900	391.940961252121	3.1683588557553
20	43209	395.109320107876	0.8748070049929
20	43299	395.984127112869	1.8099868436016
20	43483	397.794113956471	2.5841416113949
21	2016	17.485240665052	4.6287414648267
21	2554	22.113982129879	2.5117988055702
21	2877	24.625780935449	0.36808103844737
21	2922	24.993861973896	0.064860932072551
21	2923	25.058722905969	1.9281451747766
21	3105	26.986868080746	0.73832720376145
21	3182	27.725195284507	0.0069590647553632
21	3183	27.732154349262	0.78328775777759
21	3284	28.51544210704	2.2721433473073
21	3461	30.787585454347	1.6266772749167
21	3645	32.414262729264	8.6250848524637
21	4597	41.039347581728	3.9943348838103
21	5025	45.033682465538	2.8722425508035
21	5285	47.905925016342	1.8451389263964
21	5528	49.751063942738	4.2921018317628
21	6009	54.043165774501	1.3627767592552
21	6176	55.405942533756	2.5924514717988
21	6528	57.998394005555	0.43637062948899
21	6588	58.434764635044	0.1673604140315
21	6595	58.602125049075	0.0039371973174738
21	6596	58.606062246392	1.3628081601579
21	6761	59.96887040655	0.1890700157609
21	6784	60.157940422311	0.6990680186449
21	6844	60.857008440956	0.56758902073349
21	6889	61.424597461689	0.6350660906025
21	6989	62.059663552291	0.55773696820213
21	7059	62.617400520493	3.6496685691657
21	7445	66.267069089659	2.7786065725036
21	7755	69.045675662163	1.6246973663971
21	7950	70.67037302856	4.2686598448043
21	8443	74.939032873364	0.20007137432694
21	8467	75.139104247691	3.911980450719
21	8931	79.05108469841	0.78477144664665
21	9031	79.835856145057	3.7461050573304
21	9416	83.581961202387	5.4538938448162
21	10035	89.035855047203	3.8806436044853
21	10432	92.916498651688	2.5573665649819
21	10724	95.47386521667	0.25511865884541
21	10747	95.728983875515	2.990974085803
21	11110	98.719957961318	0.92771152614109
21	11315	99.647669487459	5.1468370902012
21	11793	104.79450657766	0.05770197607651
21	11799	104.852208553737	0.50818219596445
21	11848	105.360390749701	1.6338689214797
21	12022	106.994259671181	6.2941990869427
21	12753	113.288458758124	5.143964429147
21	13253	118.432423187271	2.8510175794564
21	13524	121.283440766727	3.3513489593432
21	13944	124.63478972607	0.28612685379616
21	13961	124.920916579866	3.7634344003232
21	14329	128.684350980189	7.6007773541074
21	15204	136.285128334296	1.7848373516386
21	15374	138.069965685935	1.9492915144745
21	15596	140.01925720041	1.1948757547525
21	15717	141.214132955162	2.4065220421658
21	15992	143.620654997328	0.24659090674259
21	16012	143.867245904071	0.80982293019216
21	16080	144.677068834263	0.67773003639193
21	16146	145.354798870655	0.88043259561309
21	16211	146.235231466268	2.6679647980754
21	16483	148.903196264343	2.5662954861247
21	16775	151.469491750468	1.9037024214845
21	17008	153.373194171952	0.33785956430356
21	17043	153.711053736256	2.2157360842633
21	17306	155.926789820519	1.0232006576308
21	17422	156.94999047815	2.3819393728085
21	17687	159.331929850959	0.14864794531951
21	17696	159.480577796279	1.6779421899909
21	17924	161.15851998627	3.7576026438547
21	18365	164.916122630125	0.39981793439619
21	18393	165.315940564521	3.8125547937405
21	18832	169.128495358262	0.25764457636669
21	18854	169.386139934629	0.64819099285853
21	18925	170.034330927488	0.73320282708231
21	18994	170.76753375457	1.5490529327833
21	19165	172.316586687353	0.79557887802373
21	19247	173.112165565377	0.31051899484323
21	19259	173.42268456022	1.0119727837763
21	19359	174.434657343996	1.5269710760835
21	19478	175.96162842008	1.867629420253
21	19670	177.829257840333	1.0135753009264
21	19791	178.842833141259	0.1260535675304
21	19793	178.968886708789	2.5935556018578
21	20123	181.562442310647	0.4469122008733
21	20177	182.00935451152	5.3845324771121
21	20732	187.393886988632	0.86838205837823
21	20836	188.26226904701	1.3281271497482
21	21016	189.590396196758	0.75940145366533
21	21060	190.349797650423	0.15705616887949
21	21076	190.506853819302	4.4332748610875
21	21502	194.940128680389	0.0016325845150523
21	21503	194.941761264904	0.57513097022518
21	21560	195.516892235129	5.2550015072305
21	22114	200.771893742359	0.47815658232448
21	22190	201.250050324683	2.1586432530006
21	22434	203.408693577684	1.2233729564906
21	22590	204.632066534175	0.33538623190511
21	22644	204.96745276608	0.84374120862573
21	22742	205.811193974706	0.34880803303713
21	22764	206.160002007743	0.10287223708148
21	22795	206.262874244824	1.3300567719391
21	22927	207.592931016763	0.62496737257341
21	23012	208.217898389336	3.1559389190981
21	23363	211.373837308434	0.13847295649672
21	23371	211.512310264931	1.9139557932556
21	23597	213.426266058187	5.4056688274486
21	24185	218.831934885636	1.5451217920133
21	24337	220.377056677649	0.97511602208884
21	24433	221.352172699738	0.49521218200105
21	24491	221.847384881739	1.1099108036943
21	24570	222.957295685433	0.081100780720356
21	24576	223.038396466153	2.2351404390727
21	24798	225.273536905226	0.37385446077576
21	24830	225.647391366002	2.0374679871528
21	25035	227.684859353155	3.3032865271297
21	25382	230.988145880285	0.10955445797481
21	25388	231.09770033826	0.74579646475745
21	25478	231.843496803017	0.22990081756121
21	25507	232.073397620578	0.37035128518015
21	25561	232.443748905758	1.6237811201217
21	25723	234.06753002588	1.4684372899571
21	25898	235.535967315837	3.4077613460138
21	26241	238.943728661851	0.026622340078904
21	26246	238.97035100193	1.0126328117322
21	26335	239.982983813662	0.15909825750355
21	26353	240.142082071166	2.4801724451089
21	26549	242.622254516275	0.39951460616679
21	26583	243.021769122442	2.0131066417771
21	26831	245.034875764219	4.2976072680797
21	27270	249.332483032299	1.233962168474
21	27423	250.566445200773	2.6110841247503
21	27687	253.177529325523	0.6845357077967
21	27763	253.86206503332	0.8049641883083
21	27838	254.667029221628	0.61189988526522
21	27920	255.278929106893	2.2403528185061
21	28185	257.519281925399	1.0379474410805
21	28283	258.55722936648	6.7049693779394
21	29068	265.262198744419	1.4146267384973
21	29259	266.676825482916	2.1409543460645
21	29459	268.81777982898	1.7120465612036
21	29713	270.529826390184	0.27035760167639
21	29754	270.80018399186	1.7831135880773
21	29907	272.583297579937	0.40184098390929
21	29944	272.985138563846	2.4436506556591
21	30223	275.428789219505	2.8287106260941
21	30463	278.257499845599	0.54289070860042
21	30509	278.800390554199	0.52942369172851
21	30541	279.329814245928	2.5601198660022
21	30793	281.88993411193	0.51207460386679
21	30836	282.402008715797	0.070820401532229
21	30848	282.472829117329	1.2064662878872
21	30953	283.679295405216	0.83039580656332
21	31036	284.509691211779	5.8285330804449
21	31602	290.338224292224	3.2345303051698
21	31954	293.572754597394	1.3603981122606
21	32125	294.933152709655	2.6943667758597
21	32469	297.627519485515	0.77192699153405
21	32570	298.399446477049	0.64156198076135
21	32639	299.04100845781	0.90555311530568
21	32712	299.946561573116	1.7742945510379
21	32912	301.720856124154	4.4570955789997
21	33381	306.177951703154	2.0765975842127
21	33643	308.254549287367	5.0320654353241
21	34314	313.286614722691	1.5513431045261
21	34476	314.837957827217	3.8004404867309
21	34880	318.638398313948	0.052742404294768
21	34885	318.691140718243	0.77744132174143
21	34937	319.468582039984	4.3614558135467
21	35372	323.830037853531	2.9708628916759
21	35731	326.800900745207	2.6445933606311
21	36073	329.445494105838	2.9456306757745
21	36424	332.391124781612	0.96689359678201
21	36509	333.358018378394	0.21750876953692
21	36531	333.575527147931	0.50140189074253
21	36617	334.076929038674	1.1598230539283
21	36775	335.236752092602	0.39211588436392
21	36816	335.628867976966	2.2486233072678
21	37060	337.877491284234	1.6263327328235
21	37242	339.503824017057	0.40513102898705
21	37286	339.908955046044	4.5482698265526
21	37855	344.457224872597	1.2514942869518
21	37992	345.708719159549	0.43994909863443
21	38044	346.148668258183	0.23055505771211
21	38082	346.379223315895	0.27842324421119
21	38116	346.657646560106	2.9841437065602
21	38419	349.641790266666	2.1757812764576
21	38627	351.817571543124	3.8518385333372
21	38992	355.669410076461	0.86729197061489
21	39068	356.536702047076	2.1553193799804
21	39318	358.692021427056	3.0504062939028
21	39649	361.742427720959	1.1775916567374
21	39781	362.920019377696	0.30197315670347
21	39825	363.221992534399	0.59481056402546
21	39859	363.816803098424	1.0575450840487
21	39968	364.874348182473	1.0229396936941
21	40121	365.897287876167	2.6344474246431
21	40404	368.53173530081	6.56945796114
21	41104	375.10119326195	0.4202375675046
21	41136	375.521430829455	0.46745754997838
21	41179	375.988888379433	0.036851257783452
21	41190	376.025739637216	1.4922279288648
21	41375	377.517967566081	3.7819859060579
21	41781	381.299953472139	3.2011318065941
21	42138	384.501085278733	0.15363440605722
21	42152	384.65471968479	0.82493538105652
21	42260	385.479655065847	1.6237265085426
21	42436	387.10338157439	0.76400352554442
21	42521	387.867385099934	0.025157383713571
21	42522	387.892542483648	0.083824338599448
21	42535	387.976366822247	1.2077207709025
21	42644	389.18408759315	1.5676798124126
21	42782	390.751767405563	6.9587839539225
21	43477	397.710551359486	1.4168201486389
21	43660	399.127371508125	0.30137855352989
21	43693	399.428750061655	2.2949454820234

