version 2
run Nonmonitoring-exponential-528-20210224-17:49:30-27064
attr configname Nonmonitoring-exponential
attr datetime 20210224-17:49:30
attr experiment Nonmonitoring-exponential
attr inifile aerocom.ini
attr iterationvars $0=50
attr iterationvarsf 50-
attr measurement $0=50
attr network Aerocom
attr processid 27064
attr repetition 28
attr replication #28
attr resultdir results
attr runnumber 528
attr seedset 28
param **.t 2s
param **.k 50ms
param **.X 0.05s
param **.m 1s
param **.tDistribution "\"exponential\""
param **.operationMode 1
param **.s "70 byte"
param **.dimPoolMax 10000
param **.dimPoolMin 8000
param **.nDL 16
param **.nA 1
param **.DLMaxCapacity 0
param **.trasmitting false

vector 0 Aerocom.aircraft[0].packetGenerator arrivalTime:vector ETV
attr "" ""
attr source computeArrivalTime
vector 1 Aerocom.aircraft[0].linkSelector waitingTime:vector ETV
attr "" ""
attr source computeWaitingTime
vector 2 Aerocom.aircraft[0].linkSelector queueLength:vector ETV
attr "" ""
attr source computeQueueLength
vector 3 Aerocom.aircraft[0].dataLink[5] actualCapacity:vector ETV
attr "" ""
attr source computeActualCapacity
vector 4 Aerocom.aircraft[0].linkSelector serviceTime:vector ETV
attr "" ""
attr source computeServiceTime
vector 5 Aerocom.aircraft[0].linkSelector responseTime:vector ETV
attr "" ""
attr source computeResponseTime
vector 6 Aerocom.aircraft[0].dataLink[7] tDistribution:vector ETV
attr "" ""
attr source computeTDistribution
vector 7 Aerocom.aircraft[0].dataLink[12] tDistribution:vector ETV
attr "" ""
attr source computeTDistribution
vector 8 Aerocom.aircraft[0].dataLink[1] tDistribution:vector ETV
attr "" ""
attr source computeTDistribution
vector 9 Aerocom.aircraft[0].dataLink[13] tDistribution:vector ETV
attr "" ""
attr source computeTDistribution
vector 10 Aerocom.aircraft[0].dataLink[3] tDistribution:vector ETV
attr "" ""
attr source computeTDistribution
vector 11 Aerocom.aircraft[0].dataLink[0] tDistribution:vector ETV
attr "" ""
attr source computeTDistribution
vector 12 Aerocom.aircraft[0].dataLink[5] tDistribution:vector ETV
attr "" ""
attr source computeTDistribution
vector 13 Aerocom.aircraft[0].dataLink[15] tDistribution:vector ETV
attr "" ""
attr source computeTDistribution
vector 14 Aerocom.aircraft[0].dataLink[14] tDistribution:vector ETV
attr "" ""
attr source computeTDistribution
vector 15 Aerocom.aircraft[0].dataLink[9] tDistribution:vector ETV
attr "" ""
attr source computeTDistribution
vector 16 Aerocom.aircraft[0].dataLink[8] tDistribution:vector ETV
attr "" ""
attr source computeTDistribution
vector 17 Aerocom.aircraft[0].dataLink[11] tDistribution:vector ETV
attr "" ""
attr source computeTDistribution
vector 18 Aerocom.aircraft[0].dataLink[2] tDistribution:vector ETV
attr "" ""
attr source computeTDistribution
vector 19 Aerocom.aircraft[0].dataLink[4] tDistribution:vector ETV
attr "" ""
attr source computeTDistribution
vector 20 Aerocom.aircraft[0].dataLink[10] tDistribution:vector ETV
attr "" ""
attr source computeTDistribution
vector 21 Aerocom.aircraft[0].dataLink[6] tDistribution:vector ETV
attr "" ""
attr source computeTDistribution
0	1150	10.003229993845	0.004435657872
0	1152	10.007665651717	0.032309478754
0	1160	10.039975130471	0.083041751952
0	1165	10.123016882423	0.001735909152
0	1167	10.124752791575	0.042435805571
0	1175	10.167188597146	0.147995719679
0	1181	10.315184316825	0.050003380515
0	1186	10.36518769734	0.127943110586
0	1193	10.493130807926	0.015130148528
0	1198	10.508260956454	0.015351641664
0	1203	10.523612598118	0.047888807942
0	1209	10.57150140606	0.046477946959
0	1215	10.617979353019	0.014422605503
0	1220	10.632401958522	0.02328808536
0	1225	10.655690043882	0.070874536202
0	1230	10.726564580084	0.049764163373
0	1235	10.776328743457	0.022367080162
0	1240	10.798695823619	0.052194349615
0	1245	10.850890173234	0.161054385154
0	1253	11.011944558388	0.004083898164
0	1255	11.016028456552	0.001594321649
0	1257	11.017622778201	0.0338260214
0	1268	11.051448799601	0.012543495259
0	1273	11.06399229486	0.173754909885
0	1278	11.237747204745	0.165634337212
0	1284	11.403381541957	0.026358168088
0	1289	11.429739710045	0.036151070618
0	1295	11.465890780663	0.02442671827
0	1300	11.490317498933	0.166731255915
0	1305	11.657048754848	0.020930239236
0	1310	11.677978994084	0.011367325416
0	1315	11.6893463195	0.037724239407
0	1321	11.727070558907	0.112343853682
0	1327	11.839414412589	0.040004805779
0	1332	11.879419218368	0.103406184716
0	1337	11.982825403084	0.030801448301
0	1342	12.013626851385	0.079417642594
0	1347	12.093044493979	0.011597886678
0	1352	12.104642380657	0.097941005837
0	1358	12.202583386494	0.038577508772
0	1363	12.241160895266	0.20393705511
0	1369	12.445097950376	0.012309685424
0	1374	12.4574076358	0.084820935872
0	1379	12.542228571672	0.00785045368
0	1381	12.550079025352	0.043650669158
0	1391	12.59372969451	0.051195328594
0	1396	12.644925023104	0.027617837087
0	1401	12.672542860191	0.010847260009
0	1406	12.6833901202	0.108286304273
0	1411	12.791676424473	0.016595934448
0	1416	12.808272358921	0.029007417126
0	1421	12.837279776047	0.042881950256
0	1427	12.880161726303	0.05485330683
0	1433	12.935015033133	0.190226322583
0	1439	13.125241355716	0.025495425265
0	1444	13.150736780981	0.010281656868
0	1449	13.161018437849	0.055190307421
0	1454	13.21620874527	0.045346698731
0	1459	13.261555444001	0.056821226837
0	1464	13.318376670838	0.045146379081
0	1470	13.363523049919	0.093310979845
0	1477	13.456834029764	0.00455892366
0	1479	13.461392953424	0.092823179438
0	1487	13.554216132862	0.007465397021
0	1489	13.561681529883	0.007981352356
0	1494	13.569662882239	0.0002353827
0	1496	13.569898264939	0.026151128135
0	1507	13.596049393074	0.04854012065
0	1512	13.644589513724	0.030819581244
0	1517	13.675409094968	0.006310402299
0	1519	13.681719497267	0.022158752539
0	1527	13.703878249806	0.028345421052
0	1532	13.732223670858	0.101192138666
0	1537	13.833415809524	0.225942164345
0	1545	14.059357973869	0.035369111258
0	1551	14.094727085127	0.011668525129
0	1556	14.106395610256	0.031244008992
0	1561	14.137639619248	0.022134282626
0	1567	14.159773901874	0.097805059037
0	1572	14.257578960911	0.137886431732
0	1577	14.395465392643	0.144479742855
0	1583	14.539945135498	0.049599348701
0	1588	14.589544484199	0.038149040358
0	1593	14.627693524557	0.015231447989
0	1598	14.642924972546	0.078889470957
0	1604	14.721814443503	0.006196430357
0	1606	14.72801087386	0.014147436721
0	1614	14.742158310581	0.035319541497
0	1619	14.777477852078	0.042959425434
0	1624	14.820437277512	0.101636947169
0	1630	14.922074224681	0.024951678594
0	1635	14.947025903275	0.03049726021
0	1640	14.977523163485	0.07029591171
0	1645	15.047819075195	0.024810704573
0	1651	15.072629779768	0.002562810824
0	1653	15.075192590592	0.005249065276
0	1655	15.080441655868	0.019022351403
0	1667	15.099464007271	0.200610224999
0	1673	15.30007423227	0.000639252306
0	1675	15.300713484576	0.079372796299
0	1683	15.380086280875	0.063845148591
0	1688	15.443931429466	0.025458278662
0	1693	15.469389708128	0.043820141059
0	1698	15.513209849187	0.038183342118
0	1704	15.551393191305	0.027842036059
0	1710	15.579235227364	0.020047284318
0	1715	15.599282511682	0.052613715992
0	1721	15.651896227674	0.025892590971
0	1726	15.677788818645	0.154208483515
0	1732	15.83199730216	0.026389912287
0	1737	15.858387214447	0.032386205093
0	1742	15.89077341954	0.129766068241
0	1748	16.020539487781	0.038711732402
0	1754	16.059251220183	0.007741062086
0	1756	16.066992282269	0.001463638588
0	1761	16.068455920857	0.030661560994
0	1770	16.099117481851	0.013965864455
0	1775	16.113083346306	0.033062358138
0	1780	16.146145704444	0.012299343563
0	1785	16.158445048007	0.02672205044
0	1790	16.185167098447	0.040778784166
0	1795	16.225945882613	0.160521918504
0	1800	16.386467801117	0.039004363621
0	1805	16.425472164738	0.004176105939
0	1807	16.429648270677	0.000226539059
0	1809	16.429874809736	0.034805270987
0	1820	16.464680080723	0.060126315313
0	1826	16.524806396036	0.035358580094
0	1831	16.56016497613	0.062219972092
0	1836	16.622384948222	0.033558997464
0	1841	16.655943945686	0.011423910482
0	1846	16.667367856168	0.03333034238
0	1851	16.700698198548	0.015061350234
0	1856	16.715759548782	0.002513859875
0	1858	16.718273408657	0.057160506332
0	1866	16.775433914989	0.025231488767
0	1872	16.800665403756	0.028879457903
0	1877	16.829544861659	0.016396922637
0	1882	16.845941784296	0.030038786899
0	1887	16.875980571195	0.014843074861
0	1892	16.890823646056	0.00759346008
0	1894	16.898417106136	0.032265398732
0	1902	16.930682504868	0.003766275571
0	1905	16.934448780439	0.011321133054
0	1911	16.945769913493	0.042972601938
0	1919	16.988742515431	0.02153904145
0	1924	17.010281556881	0.147275579201
0	1930	17.157557136082	0.007588598927
0	1932	17.165145735009	0.071042532863
0	1940	17.236188267872	0.01905257431
0	1946	17.255240842182	0.184781549729
0	1954	17.440022391911	0.001510476547
0	1956	17.441532868458	0.060007131158
0	1964	17.501539999616	0.020278269566
0	1970	17.521818269182	0.05045896078
0	1976	17.572277229962	0.102525048021
0	1981	17.674802277983	0.00585903244
0	1983	17.680661310423	0.013640227713
0	1991	17.694301538136	0.009415712871
0	1997	17.703717251007	0.048373749467
0	2002	17.752091000474	0.062259407702
0	2007	17.814350408176	0.028418945202
0	2012	17.842769353378	0.060307045466
0	2017	17.903076398844	0.022100663899
0	2022	17.925177062743	0.057808378544
0	2027	17.982985441287	0.052956636722
0	2033	18.035942078009	0.076550906857
0	2038	18.112492984866	0.0362921123
0	2043	18.148785097166	0.006429604348
0	2045	18.155214701514	0.050201744062
0	2053	18.205416445576	0.07941943529
0	2058	18.284835880866	0.063868056457
0	2064	18.348703937323	0.012671879235
0	2069	18.361375816558	0.002012734584
0	2071	18.363388551142	0.047860026603
0	2080	18.411248577745	0.065903370686
0	2085	18.477151948431	0.020878491419
0	2090	18.49803043985	0.041448743818
0	2095	18.539479183668	0.108310319892
0	2101	18.64778950356	0.084196481363
0	2109	18.731985984923	0.283745551681
0	2115	19.015731536604	0.004610498279
0	2117	19.020342034883	0.052531116234
0	2126	19.072873151117	0.005597110732
0	2128	19.078470261849	0.058576945188
0	2137	19.137047207037	0.028271924941
0	2142	19.165319131978	0.00878283156
0	2147	19.174101963538	0.013374910675
0	2152	19.187476874213	0.019821945894
0	2157	19.207298820107	0.014726530703
0	2162	19.22202535081	0.014116833766
0	2168	19.236142184576	0.068944976128
0	2173	19.305087160704	0.039647008399
0	2178	19.344734169103	0.065149987954
0	2184	19.409884157057	0.047927990159
0	2189	19.457812147216	0.045638915881
0	2194	19.503451063097	0.050951437402
0	2199	19.554402500499	0.034271306583
0	2204	19.588673807082	0.011383691157
0	2209	19.600057498239	0.156478820052
0	2214	19.756536318291	0.00554159083
0	2216	19.762077909121	0.014254353365
0	2224	19.776332262486	0.01901078631
0	2229	19.795343048796	0.000119893844
0	2231	19.79546294264	0.008860844706
0	2236	19.804323787346	0.046210148684
0	2245	19.85053393603	0.043541492608
0	2250	19.894075428638	0.03931208742
0	2255	19.933387516058	0.007899330625
0	2257	19.941286846683	0.026653038648
0	2265	19.967939885331	0.026134968786
0	2270	19.994074854117	0.012359796331
0	2275	20.006434650448	0.02895187234
0	2281	20.035386522788	0.00739872331
0	2283	20.042785246098	0.035218378359
0	2291	20.078003624457	0.110865857676
0	2296	20.188869482133	0.015949477574
0	2301	20.204818959707	0.01008819928
0	2306	20.214907158987	0.08442909261
0	2313	20.299336251597	0.228872147702
0	2320	20.528208399299	0.069683080487
0	2327	20.597891479786	0.024257691645
0	2332	20.622149171431	0.108647819704
0	2337	20.730796991135	0.08099972596
0	2342	20.811796717095	0.054573820553
0	2347	20.866370537648	0.135326752301
0	2353	21.001697289949	0.044422525474
0	2358	21.046119815423	0.013707022237
0	2363	21.05982683766	0.189074397928
0	2369	21.248901235588	0.003333753085
0	2371	21.252234988673	0.137454362064
0	2380	21.389689350737	0.002094886406
0	2382	21.391784237143	0.00410962901
0	2384	21.395893866153	0.075284205203
0	2395	21.471178071356	0.075797645555
0	2401	21.546975716911	0.021122611309
0	2406	21.56809832822	8.050617e-05
0	2408	21.56817883439	0.028339030317
0	2416	21.596517864707	0.147092239596
0	2422	21.743610104303	0.012217199488
0	2427	21.755827303791	0.013855332486
0	2432	21.769682636277	0.076789867096
0	2437	21.846472503373	0.062303681554
0	2443	21.908776184927	0.081195783684
0	2449	21.989971968611	0.096831015897
0	2454	22.086802984508	0.002520944718
0	2456	22.089323929226	0.051220480783
0	2465	22.140544410009	0.125774633426
0	2472	22.266319043435	0.149068324098
0	2478	22.415387367533	0.063823609905
0	2483	22.479210977438	0.032098032443
0	2488	22.511309009881	0.040329030704
0	2493	22.551638040585	0.011314462512
0	2498	22.562952503097	0.055274531561
0	2504	22.618227034658	0.11135705639
0	2510	22.729584091048	0.045761287265
0	2516	22.775345378313	0.055072769557
0	2521	22.83041814787	0.166840115405
0	2528	22.997258263275	0.065391798898
0	2534	23.062650062173	0.005172767394
0	2536	23.067822829567	0.005132404299
0	2541	23.072955233866	0.051160244694
0	2549	23.12411547856	0.062428380649
0	2554	23.186543859209	0.064630725794
0	2560	23.251174585003	0.041763766712
0	2566	23.292938351715	0.044520311645
0	2571	23.33745866336	0.072725419795
0	2576	23.410184083155	0.065892774117
0	2581	23.476076857272	0.003289382847
0	2583	23.479366240119	0.050719630398
0	2591	23.530085870517	0.01424435432
0	2596	23.544330224837	0.024493426113
0	2601	23.56882365095	0.027831734662
0	2607	23.596655385612	0.365433159214
0	2615	23.962088544826	0.130895436787
0	2622	24.092983981613	0.015412925358
0	2627	24.108396906971	0.025511700999
0	2632	24.13390860797	0.004679440017
0	2634	24.138588047987	0.057915438061
0	2642	24.196503486048	0.072475247566
0	2647	24.268978733614	0.014612379938
0	2652	24.283591113552	0.070694276836
0	2661	24.354285390388	0.159135129344
0	2667	24.513420519732	0.01089857188
0	2672	24.524319091612	0.002162245584
0	2674	24.526481337196	0.031682931995
0	2682	24.558164269191	0.055757429581
0	2689	24.613921698772	0.083236366487
0	2696	24.697158065259	0.019660044304
0	2701	24.716818109563	0.007888699291
0	2707	24.724706808854	0.007277281411
0	2709	24.731984090265	0.063226961195
0	2718	24.79521105146	0.034585087172
0	2723	24.829796138632	0.022782673369
0	2728	24.852578812001	0.110621070356
0	2735	24.963199882357	0.2058819629
0	2741	25.169081845257	0.011253768334
0	2746	25.180335613591	0.016807403506
0	2751	25.197143017097	0.082934536295
0	2756	25.280077553392	0.046075297695
0	2761	25.326152851087	0.02159551731
0	2766	25.347748368397	0.004651878959
0	2768	25.352400247356	0.007093022809
0	2773	25.359493270165	0.022758397174
0	2781	25.382251667339	0.011780907079
0	2786	25.394032574418	0.036880875904
0	2791	25.430913450322	0.034625618805
0	2796	25.465539069127	0.009342876131
0	2801	25.474881945258	0.019075740667
0	2806	25.493957685925	0.006820843737
0	2808	25.500778529662	0.008732027654
0	2813	25.509510557316	0.02646585673
0	2821	25.535976414046	0.090352732559
0	2828	25.626329146605	0.054440810943
0	2833	25.680769957548	0.090030419418
0	2839	25.770800376966	0.083841656997
0	2845	25.854642033963	0.140497678395
0	2851	25.995139712358	0.084136515637
0	2857	26.079276227995	0.037226390557
0	2863	26.116502618552	0.045372897034
0	2868	26.161875515586	0.000775148283
0	2870	26.162650663869	0.014506972016
0	2875	26.177157635885	0.091323918265
0	2885	26.26848155415	0.044623414
0	2890	26.31310496815	0.01108092587
0	2895	26.32418589402	0.008508740764
0	2900	26.332694634784	0.07862209585
0	2905	26.411316730634	0.029471390627
0	2911	26.440788121261	0.096451099328
0	2917	26.537239220589	0.003905822889
0	2919	26.541145043478	0.001489999495
0	2921	26.542635042973	0.002757900762
0	2926	26.545392943735	0.046248522846
0	2937	26.591641466581	0.086783576941
0	2943	26.678425043522	0.035685350561
0	2948	26.714110394083	0.0641094275
0	2953	26.778219821583	0.024653003228
0	2958	26.802872824811	0.012468179693
0	2963	26.815341004504	0.011082325976
0	2969	26.82642333048	0.017601627153
0	2974	26.844024957633	0.005635124884
0	2976	26.849660082517	0.029828770723
0	2984	26.87948885324	0.128120575335
0	2989	27.007609428575	0.032763816895
0	2995	27.04037324547	0.008153488373
0	2997	27.048526733843	0.077074348267
0	3005	27.12560108211	0.049259343476
0	3010	27.174860425586	0.054247535358
0	3015	27.229107960944	0.009138145293
0	3020	27.238246106237	0.105602030299
0	3025	27.343848136536	0.008421804135
0	3030	27.352269940671	0.024402214865
0	3035	27.376672155536	0.03626639931
0	3040	27.412938554846	0.006585672546
0	3042	27.419524227392	0.034212814091
0	3050	27.453737041483	0.062817700361
0	3056	27.516554741844	0.0104735014
0	3061	27.527028243244	0.004202603811
0	3063	27.531230847055	0.040519073731
0	3071	27.571749920786	0.022330294665
0	3076	27.594080215451	0.039723517007
0	3081	27.633803732458	0.089102452881
0	3089	27.722906185339	0.011305212911
0	3094	27.73421139825	0.119603634433
0	3099	27.853815032683	0.176460867504
0	3105	28.030275900187	0.012101939528
0	3110	28.042377839715	0.014863944487
0	3115	28.057241784202	0.057110052792
0	3120	28.114351836994	0.015868288024
0	3125	28.130220125018	0.017517216619
0	3130	28.147737341637	0.025933750433
0	3135	28.17367109207	0.046150904467
0	3141	28.219821996537	0.207479374565
0	3147	28.427301371102	0.025335051154
0	3152	28.452636422256	0.010490644729
0	3157	28.463127066985	0.057758810157
0	3162	28.520885877142	0.04770503
0	3167	28.568590907142	0.041297222641
0	3173	28.609888129783	0.01600649263
0	3178	28.625894622413	0.00026769535
0	3180	28.626162317763	0.045217591127
0	3190	28.67137990889	0.020345420301
0	3196	28.691725329191	0.032761472451
0	3201	28.724486801642	0.113211967278
0	3206	28.83769876892	0.031963279801
0	3211	28.869662048721	0.0270649091
0	3216	28.896726957821	0.001233923058
0	3218	28.897960880879	0.02465226834
0	3226	28.922613149219	0.045743692623
0	3231	28.968356841842	0.088606894572
0	3236	29.056963736414	0.013797383536
0	3241	29.07076111995	0.024087793385
0	3247	29.094848913335	0.080803685155
0	3252	29.17565259849	0.070299561845
0	3257	29.245952160335	0.00707482342
0	3259	29.253026983755	0.018367664326
0	3267	29.271394648081	0.019955277301
0	3272	29.291349925382	0.001980278988
0	3274	29.29333020437	0.048325730043
0	3282	29.341655934413	0.099912362965
0	3289	29.441568297378	0.007626001428
0	3291	29.449194298806	0.025929049132
0	3301	29.475123347938	0.016748392341
0	3306	29.491871740279	0.216187547777
0	3313	29.708059288056	0.033627767783
0	3318	29.741687055839	0.007157878044
0	3320	29.748844933883	0.019547607429
0	3329	29.768392541312	0.108134703481
0	3334	29.876527244793	0.071624976199
0	3341	29.948152220992	0.013694612681
0	3346	29.961846833673	0.039390276567
0	3351	30.00123711024	0.084531157385
0	3356	30.085768267625	0.064067144071
0	3361	30.149835411696	0.010792578034
0	3366	30.16062798973	0.054561843592
0	3372	30.215189833322	0.040882017709
0	3377	30.256071851031	0.041926606796
0	3382	30.297998457827	0.027670769828
0	3388	30.325669227655	0.013441789653
0	3393	30.339111017308	0.012239422887
0	3398	30.351350440195	0.010318617832
0	3403	30.361669058027	0.030412780212
0	3408	30.392081838239	0.054557683817
0	3415	30.446639522056	0.011434078096
0	3420	30.458073600152	0.005864970059
0	3422	30.463938570211	0.068762882421
0	3431	30.532701452632	0.034188868949
0	3437	30.566890321581	0.072328585918
0	3443	30.639218907499	0.003100987345
0	3445	30.642319894844	0.025407796532
0	3453	30.667727691376	0.010034681482
0	3458	30.677762372858	0.049371446277
0	3464	30.727133819135	0.093994330918
0	3470	30.821128150053	0.007838205
0	3472	30.828966355053	0.209892518471
0	3481	31.038858873524	0.048688029148
0	3486	31.087546902672	0.038888369364
0	3491	31.126435272036	0.146682595561
0	3497	31.273117867597	0.082658075693
0	3502	31.35577594329	0.015106571038
0	3507	31.370882514328	0.056676274506
0	3512	31.427558788834	0.022939658699
0	3517	31.450498447533	0.047139486321
0	3523	31.497637933854	0.03543277912
0	3528	31.533070712974	0.090778729626
0	3533	31.6238494426	0.020019635055
0	3538	31.643869077655	0.025583203882
0	3543	31.669452281537	0.016803619355
0	3548	31.686255900892	0.011599350238
0	3553	31.69785525113	0.004508451275
0	3555	31.702363702405	0.05510796684
0	3563	31.757471669245	0.033758817548
0	3568	31.791230486793	0.022667457475
0	3573	31.813897944268	0.134725500324
0	3579	31.948623444592	0.096391702485
0	3587	32.045015147077	0.010443044853
0	3592	32.05545819193	0.052581537506
0	3597	32.108039729436	0.03267754024
0	3605	32.140717269676	0.033693746731
0	3610	32.174411016407	0.15734025941
0	3615	32.331751275817	0.046733939988
0	3620	32.378485215805	0.026546050117
0	3625	32.405031265922	0.129237730651
0	3630	32.534268996573	0.016722213339
0	3635	32.550991209912	0.12014459582
0	3640	32.671135805732	0.002082963464
0	3642	32.673218769196	0.048146697806
0	3650	32.721365467002	0.151772924963
0	3655	32.873138391965	0.006082922126
0	3657	32.879221314091	0.098832022737
0	3666	32.978053336828	0.022443560116
0	3672	33.000496896944	0.020552997306
0	3677	33.02104989425	0.024515657503
0	3682	33.045565551753	0.042954947951
0	3688	33.088520499704	0.050342971887
0	3693	33.138863471591	0.030635513587
0	3698	33.169498985178	0.000969361612
0	3700	33.17046834679	0.061458579861
0	3708	33.231926926651	0.088774140689
0	3714	33.32070106734	0.046260217353
0	3719	33.366961284693	0.003995180213
0	3721	33.370956464906	0.011055148214
0	3729	33.38201161312	0.002401643087
0	3731	33.384413256207	0.070939991576
0	3740	33.455353247783	0.050217724765
0	3747	33.505570972548	0.100240737628
0	3752	33.605811710176	0.011203130251
0	3758	33.617014840427	0.00494648078
0	3760	33.621961321207	0.116796868565
0	3768	33.738758189772	0.038149708408
0	3774	33.77690789818	0.126552425091
0	3779	33.903460323271	0.00417870004
0	3781	33.907639023311	0.164542108784
0	3791	34.072181132095	0.053216890907
0	3796	34.125398023002	0.001116522067
0	3798	34.126514545069	0.025595915626
0	3807	34.152110460695	0.024920005206
0	3812	34.177030465901	0.020004671169
0	3817	34.19703513707	0.049599325063
0	3822	34.246634462133	0.042711084201
0	3827	34.289345546334	0.262827147059
0	3835	34.552172693393	0.054838657379
0	3841	34.607011350772	0.123816105602
0	3847	34.730827456374	0.057600500771
0	3854	34.788427957145	0.002877797355
0	3856	34.7913057545	0.046568157285
0	3864	34.837873911785	0.024069914885
0	3870	34.86194382667	0.001989181678
0	3872	34.863933008348	0.024907672546
0	3880	34.888840680894	0.006352594169
0	3882	34.895193275063	0.119799190343
0	3890	35.014992465406	0.0789272358
0	3895	35.093919701206	0.037215935195
0	3900	35.131135636401	0.114983614819
0	3906	35.24611925122	0.094609765201
0	3912	35.340729016421	0.022181117042
0	3917	35.362910133463	0.044035449456
0	3924	35.406945582919	0.017260806186
0	3929	35.424206389105	0.044042952449
0	3935	35.468249341554	0.036751545029
0	3940	35.505000886583	0.028663200449
0	3946	35.533664087032	0.012046943282
0	3951	35.545711030314	0.092576690235
0	3957	35.638287720549	0.001203972669
0	3959	35.639491693218	0.02253202629
0	3967	35.662023719508	0.083396624904
0	3976	35.745420344412	0.015156435383
0	3981	35.760576779795	0.064579309343
0	3987	35.825156089138	0.059133247646
0	3992	35.884289336784	0.01973694211
0	3997	35.904026278894	0.014988107922
0	4002	35.919014386816	0.026231099331
0	4009	35.945245486147	0.064265243425
0	4015	36.009510729572	0.043231452109
0	4020	36.052742181681	0.08962779432
0	4025	36.142369976001	0.003670366959
0	4027	36.14604034296	0.021670829748
0	4035	36.167711172708	0.114511397437
0	4040	36.282222570145	0.031885669103
0	4045	36.314108239248	0.051101334073
0	4051	36.365209573321	0.15313549889
0	4056	36.518345072211	0.067246913373
0	4061	36.585591985584	0.021126604423
0	4066	36.606718590007	0.038552197731
0	4073	36.645270787738	0.02105542997
0	4078	36.666326217708	0.016394971122
0	4083	36.68272118883	0.043198545733
0	4088	36.725919734563	0.010536722435
0	4093	36.736456456998	0.003401460713
0	4095	36.739857917711	0.114421371322
0	4103	36.854279289033	0.048902917267
0	4110	36.9031822063	0.030874975675
0	4115	36.934057181975	0.00460244682
0	4117	36.938659628795	0.24930324402
0	4125	37.187962872815	0.09207192017
0	4130	37.280034792985	0.061848685029
0	4135	37.341883478014	0.010476686949
0	4140	37.352360164963	0.067144981661
0	4146	37.419505146624	0.026315656096
0	4151	37.44582080272	0.046358645774
0	4156	37.492179448494	0.049888955766
0	4161	37.54206840426	0.025822654802
0	4166	37.567891059062	0.014600507271
0	4171	37.582491566333	0.020885230362
0	4176	37.603376796695	0.084865035666
0	4183	37.688241832361	0.02334888687
0	4188	37.711590719231	0.054780424544
0	4193	37.766371143775	0.026587859018
0	4198	37.792959002793	0.178657147608
0	4205	37.971616150401	0.005275798978
0	4207	37.976891949379	0.006217616027
0	4212	37.983109565406	0.017210292305
0	4220	38.000319857711	0.024032961518
0	4225	38.024352819229	0.080473855989
0	4231	38.104826675218	0.088629314906
0	4237	38.193455990124	0.071947269455
0	4242	38.265403259579	0.077811100593
0	4247	38.343214360172	0.061536073562
0	4252	38.404750433734	0.069368852443
0	4257	38.474119286177	0.053470609429
0	4263	38.527589895606	0.076700120172
0	4269	38.604290015778	0.104875042329
0	4276	38.709165058107	0.023908977079
0	4282	38.733074035186	0.005321467382
0	4284	38.738395502568	0.026290466205
0	4292	38.764685968773	0.022461404462
0	4297	38.787147373235	0.0101113894
0	4302	38.797258762635	0.148025011937
0	4307	38.945283774572	0.011504658704
0	4312	38.956788433276	0.028922024841
0	4317	38.985710458117	0.158607880022
0	4322	39.144318338139	0.010702178369
0	4327	39.155020516508	0.052965268761
0	4334	39.207985785269	0.008555403085
0	4339	39.216541188354	0.025297974961
0	4344	39.241839163315	0.036733822105
0	4350	39.27857298542	0.150219553639
0	4356	39.428792539059	0.047242362913
0	4361	39.476034901972	0.097990881823
0	4367	39.574025783795	0.029159839097
0	4372	39.603185622892	0.004373837355
0	4374	39.607559460247	0.060978894691
0	4383	39.668538354938	0.039906785754
0	4389	39.708445140692	0.028973655864
0	4394	39.737418796556	0.021160126424
0	4400	39.75857892298	0.062921591196
0	4406	39.821500514176	0.035803847133
0	4411	39.857304361309	0.169326886153
0	4418	40.026631247462	0.001836351738
0	4420	40.0284675992	0.106094663131
0	4430	40.134562262331	0.06100435892
0	4435	40.195566621251	0.053667953394
0	4440	40.249234574645	0.013203378155
0	4445	40.2624379528	0.015678998042
0	4450	40.278116950842	0.056120190037
0	4456	40.334237140879	0.0519825627
0	4461	40.386219703579	0.052793314696
0	4466	40.439013018275	0.024308130987
0	4471	40.463321149262	0.035665335317
0	4476	40.498986484579	0.092955198977
0	4481	40.591941683556	0.004755360998
0	4483	40.596697044554	0.017618563976
0	4491	40.61431560853	0.002258622813
0	4493	40.616574231343	0.028775383787
0	4501	40.64534961513	0.00976017845
0	4506	40.65510979358	0.070854164515
0	4511	40.725963958095	0.012159120326
0	4516	40.738123078421	0.007219043265
0	4518	40.745342121686	0.036689176733
0	4527	40.782031298419	0.019441035149
0	4532	40.801472333568	0.048644972067
0	4537	40.850117305635	0.042613842586
0	4542	40.892731148221	0.066635972873
0	4547	40.959367121094	0.01641116426
0	4552	40.975778285354	0.000194278733
0	4554	40.975972564087	0.073106086439
0	4562	41.049078650526	0.00765539972
0	4564	41.056734050246	0.019304526275
0	4573	41.076038576521	0.036016417158
0	4578	41.112054993679	0.022038665232
0	4583	41.134093658911	0.038234426782
0	4588	41.172328085693	0.017164305229
0	4593	41.189492390922	0.031797931756
0	4598	41.221290322678	0.134646021638
0	4606	41.355936344316	0.033776869336
0	4611	41.389713213652	0.048409422747
0	4616	41.438122636399	0.011451756298
0	4621	41.449574392697	0.06674133268
0	4627	41.516315725377	0.015149361118
0	4632	41.531465086495	0.057943342172
0	4637	41.589408428667	0.029180754792
0	4642	41.618589183459	0.034778735093
0	4647	41.653367918552	0.014835061979
0	4653	41.668202980531	0.074877002086
0	4658	41.743079982617	0.052307346642
0	4663	41.795387329259	0.028268178695
0	4668	41.823655507954	0.011149897886
0	4673	41.83480540584	0.006603964137
0	4675	41.841409369977	0.013809631238
0	4683	41.855219001215	0.031525166122
0	4688	41.886744167337	0.060461639511
0	4693	41.947205806848	0.033361631416
0	4698	41.980567438264	0.160572237208
0	4704	42.141139675472	0.131323052999
0	4709	42.272462728471	0.079363009251
0	4714	42.351825737722	0.083006210659
0	4722	42.434831948381	0.011689733292
0	4727	42.446521681673	0.029231060101
0	4732	42.475752741774	0.036977187116
0	4737	42.51272992889	0.029345451916
0	4742	42.542075380806	0.05887699289
0	4748	42.600952373696	0.041698315352
0	4753	42.642650689048	0.026780521118
0	4758	42.669431210166	0.002783075248
0	4760	42.672214285414	0.026282652049
0	4768	42.698496937463	0.074337218994
0	4773	42.772834156457	0.094536109931
0	4778	42.867370266388	0.04253688289
0	4783	42.909907149278	0.014305677362
0	4788	42.92421282664	0.033211483768
0	4793	42.957424310408	0.064370188927
0	4798	43.021794499335	0.041778799538
0	4804	43.063573298873	0.030775712882
0	4809	43.094349011755	0.008082123587
0	4814	43.102431135342	0.024702817927
0	4819	43.127133953269	0.043106455531
0	4824	43.1702404088	0.132555866673
0	4829	43.302796275473	0.005678823337
0	4831	43.30847509881	0.070210776449
0	4841	43.378685875259	0.087610138535
0	4846	43.466296013794	0.039232892432
0	4852	43.505528906226	0.101936991083
0	4857	43.607465897309	0.005857401126
0	4859	43.613323298435	0.131160781434
0	4867	43.744484079869	0.123967894345
0	4874	43.868451974214	0.044040365673
0	4879	43.912492339887	0.11331179699
0	4886	44.025804136877	0.030311416237
0	4891	44.056115553114	0.060324439411
0	4896	44.116439992525	0.060439926167
0	4901	44.176879918692	0.090946639445
0	4906	44.267826558137	0.065021317733
0	4911	44.33284787587	0.024638362521
0	4916	44.357486238391	0.065025540758
0	4921	44.422511779149	0.009650360975
0	4926	44.432162140124	0.04872755966
0	4932	44.480889699784	0.079472369646
0	4937	44.56036206943	0.030328775996
0	4942	44.590690845426	0.007012774811
0	4944	44.597703620237	0.076166651299
0	4952	44.673870271536	0.018880398903
0	4957	44.692750670439	0.00326783218
0	4959	44.696018502619	0.075602341565
0	4967	44.771620844184	0.1007036397
0	4972	44.872324483884	0.025834775946
0	4977	44.89815925983	0.053368835773
0	4982	44.951528095603	0.085877957618
0	4987	45.037406053221	0.034928402626
0	4992	45.072334455847	0.002347520169
0	4994	45.074681976016	0.009543857147
0	4999	45.084225833163	0.042539020906
0	5007	45.126764854069	0.151201975937
0	5013	45.277966830006	0.089212245799
0	5019	45.367179075805	0.027873353857
0	5024	45.395052429662	0.056549170301
0	5029	45.451601599963	0.063285571035
0	5037	45.514887170998	0.011258259017
0	5042	45.526145430015	0.051311793076
0	5048	45.577457223091	0.015905862059
0	5053	45.59336308515	0.015681043881
0	5058	45.609044129031	0.027579702211
0	5063	45.636623831242	0.159811961895
0	5071	45.796435793137	0.00549450301
0	5074	45.801930296147	0.193974958975
0	5085	45.995905255122	0.04028592851
0	5093	46.036191183632	0.107744689236
0	5100	46.143935872868	0.043537876807
0	5105	46.187473749675	0.023299546126
0	5110	46.210773295801	0.03309265256
0	5117	46.243865948361	0.118870844445
0	5123	46.362736792806	0.137851304409
0	5129	46.500588097215	0.011742542711
0	5134	46.512330639926	0.204257627877
0	5140	46.716588267803	0.066420771864
0	5146	46.783009039667	0.021281809818
0	5152	46.804290849485	0.00013542174
0	5154	46.804426271225	0.068101205268
0	5162	46.872527476493	0.029772249153
0	5167	46.902299725646	0.050454227271
0	5173	46.952753952917	0.013553986732
0	5178	46.966307939649	0.159296447727
0	5184	47.125604387376	0.009588062519
0	5189	47.135192449895	0.034111370926
0	5194	47.169303820821	0.032223549628
0	5199	47.201527370449	0.039863972744
0	5204	47.241391343193	0.05259310825
0	5209	47.293984451443	0.015288342601
0	5214	47.309272794044	0.015289803792
0	5219	47.324562597836	0.010916070224
0	5224	47.33547866806	0.047562350806
0	5229	47.383041018866	0.05743202093
0	5234	47.440473039796	0.07204480632
0	5239	47.512517846116	0.073969871041
0	5244	47.586487717157	0.026754525741
0	5249	47.613242242898	0.003223143913
0	5251	47.616465386811	0.012152788296
0	5256	47.628618175107	0.00199651061
0	5261	47.630614685717	0.120961833199
0	5269	47.751576518916	0.015842346716
0	5274	47.767418865632	0.071539071885
0	5281	47.838957937517	0.003186974662
0	5283	47.842144912179	0.039013610022
0	5291	47.881158522201	0.066051302621
0	5296	47.947209824822	0.055276849594
0	5302	48.002486674416	0.022536353587
0	5307	48.025023028003	0.117751402763
0	5313	48.142774430766	0.02149922553
0	5318	48.164273656296	0.002971256901
0	5320	48.167244913197	0.014384175893
0	5328	48.18162908909	0.012381305264
0	5334	48.194010394354	0.006847046406
0	5336	48.20085744076	0.019832930727
0	5344	48.220690371487	0.086742913974
0	5352	48.307433285461	0.067566150021
0	5357	48.374999435482	0.130190474656
0	5363	48.505189910138	0.09857461628
0	5369	48.603764526418	0.007520996142
0	5371	48.61128552256	0.032060477484
0	5379	48.643346000044	0.075254006274
0	5385	48.718600006318	0.002028775944
0	5387	48.720628782262	0.021440435808
0	5396	48.74206921807	0.008612271606
0	5398	48.750681489676	0.092962685922
0	5406	48.843644175598	0.024564867468
0	5412	48.868209043066	0.130781167475
0	5418	48.998990210541	0.039868503879
0	5424	49.03885871442	0.0212286196
0	5429	49.06008733402	0.01645123503
0	5434	49.07653856905	0.010313452183
0	5439	49.086852021233	0.007572834298
0	5441	49.094424855531	0.033747017916
0	5449	49.128171873447	0.013861489376
0	5455	49.142033362823	0.042070633517
0	5460	49.18410399634	0.15350059334
0	5466	49.33760458968	0.004452439931
0	5468	49.342057029611	0.11243258114
0	5476	49.454489610751	0.077580255757
0	5481	49.532069866508	0.096234233926
0	5487	49.628304100434	0.051412869154
0	5494	49.679716969588	0.06861028737
0	5499	49.748327256958	0.011620406433
0	5504	49.759947663391	0.196331754042
0	5509	49.956279417433	0.013254152632
0	5514	49.969533570065	0.013097108694
0	5519	49.982630678759	0.00529529711
0	5521	49.987925975869	0.019815065121
0	5529	50.00774104099	0.005117325843
0	5531	50.012858366833	0.044853081887
0	5539	50.05771144872	0.072064233997
0	5545	50.129775682717	0.110289594957
0	5550	50.240065277674	0.049148532715
0	5555	50.289213810389	0.134369430322
0	5564	50.423583240711	0.235980533249
0	5569	50.65956377396	0.051824296274
0	5574	50.711388070234	0.06050666561
0	5579	50.771894735844	0.027244189092
0	5585	50.799138924936	0.051457786889
0	5591	50.850596711825	0.074759145219
0	5598	50.925355857044	0.070805915121
0	5603	50.996161772165	0.04460912604
0	5608	51.040770898205	0.003448113937
0	5610	51.044219012142	0.007187614359
0	5615	51.051406626501	0.029663317552
0	5625	51.081069944053	0.051272757292
0	5632	51.132342701345	0.060584253614
0	5638	51.192926954959	0.032356363669
0	5644	51.225283318628	0.04380793361
0	5650	51.269091252238	0.146065148333
0	5656	51.415156400571	0.014490877639
0	5661	51.42964727821	0.146770833227
0	5666	51.576418111437	0.014176987794
0	5671	51.590595099231	0.022665278537
0	5676	51.613260377768	0.012651099157
0	5681	51.625911476925	0.008595694906
0	5686	51.634507171831	0.001632674993
0	5688	51.636139846824	0.025748834132
0	5696	51.661888680956	0.016266191301
0	5702	51.678154872257	0.080017906044
0	5708	51.758172778301	0.114334476019
0	5714	51.87250725432	0.036031688292
0	5719	51.908538942612	0.001076095527
0	5721	51.909615038139	0.01752301021
0	5729	51.927138048349	0.006168949047
0	5731	51.933306997396	0.004070678568
0	5736	51.937377675964	0.053841988612
0	5744	51.991219664576	0.089932889093
0	5749	52.081152553669	0.030352745651
0	5755	52.11150529932	0.041404686202
0	5760	52.152909985522	0.032304542287
0	5765	52.185214527809	0.074648163009
0	5771	52.259862690818	0.033321049546
0	5776	52.293183740364	0.014511576423
0	5781	52.307695316787	0.073864293067
0	5787	52.381559609854	0.027130721348
0	5792	52.408690331202	0.13092935645
0	5800	52.539619687652	0.000538347577
0	5802	52.540158035229	0.130140084477
0	5811	52.670298119706	0.050102311854
0	5816	52.72040043156	0.013798584917
0	5821	52.734199016477	0.05641457861
0	5826	52.790613595087	0.053318217772
0	5831	52.843931812859	0.056251734427
0	5836	52.900183547286	0.00496943321
0	5838	52.905152980496	0.062549916212
0	5846	52.967702896708	0.016452289795
0	5851	52.984155186503	0.160443962227
0	5858	53.14459914873	0.000617502879
0	5860	53.145216651609	0.034137367727
0	5868	53.179354019336	0.080631744351
0	5874	53.259985763687	0.004596037729
0	5876	53.264581801416	0.010375693739
0	5881	53.274957495155	0.025418990282
0	5889	53.300376485437	0.012289716112
0	5894	53.312666201549	0.036343220276
0	5900	53.349009421825	0.02754060938
0	5905	53.376550031205	0.06243781339
0	5910	53.438987844595	0.024148118937
0	5915	53.463135963532	0.001080595745
0	5917	53.464216559277	0.055160111923
0	5925	53.5193766712	0.004119089708
0	5927	53.523495760908	0.120033650171
0	5935	53.643529411079	0.000955539113
0	5937	53.644484950192	0.014751833673
0	5943	53.659236783865	0.008761188909
0	5948	53.667997972774	0.001657501382
0	5953	53.669655474156	0.090640228735
0	5962	53.760295702891	0.086629613104
0	5967	53.846925315995	0.04178563797
0	5974	53.888710953965	0.015009336782
0	5979	53.903720290747	0.047464054031
0	5984	53.951184344778	0.093553511102
0	5989	54.04473785588	0.05920833056
0	5994	54.10394618644	0.067838972691
0	5999	54.171785159131	0.051155124078
0	6004	54.222940283209	0.093365392657
0	6010	54.316305675866	0.005421225144
0	6012	54.32172690101	0.01938244004
0	6020	54.34110934105	0.003937025409
0	6022	54.345046366459	0.041573014888
0	6031	54.386619381347	0.004327269879
0	6033	54.390946651226	0.106026112179
0	6043	54.496972763405	0.09046332285
0	6049	54.587436086255	0.009842029524
0	6054	54.597278115779	0.089624368401
0	6059	54.68690248418	0.001132709266
0	6061	54.688035193446	0.008510271131
0	6066	54.696545464577	0.009432137793
0	6071	54.70597760237	0.08151339646
0	6079	54.78749099883	0.000113058668
0	6081	54.787604057498	0.003549243258
0	6083	54.791153300756	0.280771452981
0	6094	55.071924753737	0.048280460107
0	6099	55.120205213844	0.038371589875
0	6104	55.158576803719	0.025596075872
0	6109	55.184172879591	0.128188377883
0	6117	55.312361257474	0.105414279144
0	6126	55.417775536618	0.001248799117
0	6128	55.419024335735	0.047217852969
0	6136	55.466242188704	0.020492600285
0	6141	55.486734788989	0.022805942788
0	6146	55.509540731777	0.0093371285
0	6151	55.518877860277	0.006229727213
0	6153	55.52510758749	0.032344139576
0	6161	55.557451727066	0.029775353998
0	6166	55.587227081064	0.009298714671
0	6171	55.596525795735	0.067529821956
0	6176	55.664055617691	0.003178344301
0	6178	55.667233961992	0.026825898661
0	6186	55.694059860653	0.013116758398
0	6191	55.707176619051	0.007689606875
0	6193	55.714866225926	0.059192801588
0	6201	55.774059027514	0.033054759508
0	6206	55.807113787022	0.013707682029
0	6212	55.820821469051	0.011954724863
0	6218	55.832776193914	0.024001316613
0	6223	55.856777510527	0.036846530587
0	6228	55.893624041114	0.046971966873
0	6234	55.940596007987	0.006078794049
0	6236	55.946674802036	0.032557741658
0	6245	55.979232543694	0.054596505571
0	6251	56.033829049265	0.036963765461
0	6257	56.070792814726	0.081441631419
0	6262	56.152234446145	0.015530869236
0	6268	56.167765315381	0.115352742687
0	6274	56.283118058068	0.083077962772
0	6279	56.36619602084	0.059447311155
0	6284	56.425643331995	0.021568730341
0	6289	56.447212062336	0.017075817327
0	6294	56.464287879663	0.04191957974
0	6299	56.506207459403	0.068677631634
0	6304	56.574885091037	0.073116450526
0	6310	56.648001541563	0.001857832383
0	6312	56.649859373946	0.012102046493
0	6317	56.661961420439	0.027127930911
0	6325	56.68908935135	0.102673627801
0	6331	56.791762979151	0.021831254377
0	6336	56.813594233528	0.024628148103
0	6341	56.838222381631	0.035994259726
0	6346	56.874216641357	0.006909931273
0	6348	56.88112657263	0.109197914663
0	6356	56.990324487293	0.025986685854
0	6361	57.016311173147	0.02554201402
0	6368	57.041853187167	0.024758647336
0	6374	57.066611834503	0.006005556704
0	6376	57.072617391207	0.004793760173
0	6381	57.07741115138	0.008997502644
0	6386	57.086408654024	0.065064313397
0	6394	57.151472967421	0.050180698401
0	6399	57.201653665822	0.0025807462
0	6401	57.204234412022	0.053579083728
0	6409	57.25781349575	0.020301785583
0	6415	57.278115281333	0.237476511659
0	6420	57.515591792992	0.037298070476
0	6426	57.552889863468	0.008038667591
0	6431	57.560928531059	0.047903755325
0	6436	57.608832286384	0.023639266124
0	6441	57.632471552508	0.000602104544
0	6443	57.633073657052	0.057079345901
0	6451	57.690153002953	0.02421822285
0	6456	57.714371225803	0.008977559456
0	6461	57.723348785259	0.072419573327
0	6466	57.795768358586	0.001252892373
0	6468	57.797021250959	0.009418653955
0	6473	57.806439904914	0.050980323116
0	6481	57.85742022803	0.019539694559
0	6486	57.876959922589	0.007401479117
0	6488	57.884361401706	0.082783411854
0	6496	57.96714481356	0.038849338706
0	6502	58.005994152266	0.007865411449
0	6507	58.013859563715	0.007423676772
0	6509	58.021283240487	0.048311898971
0	6518	58.069595139458	0.083338225139
0	6525	58.152933364597	0.009381070154
0	6530	58.162314434751	0.012863496933
0	6535	58.175177931684	0.03040991446
0	6540	58.205587846144	0.100852360687
0	6545	58.306440206831	0.264546034046
0	6551	58.570986240877	0.004807947488
0	6553	58.575794188365	0.028328675876
0	6561	58.604122864241	0.274310033514
0	6569	58.878432897755	0.078597816825
0	6577	58.95703071458	0.102624515504
0	6582	59.059655230084	0.021551003599
0	6587	59.081206233683	0.00872203484
0	6592	59.089928268523	0.089921125363
0	6597	59.179849393886	0.068122177321
0	6602	59.247971571207	0.049699247499
0	6608	59.297670818706	0.045412040251
0	6613	59.343082858957	0.004140317982
0	6615	59.347223176939	0.026215168044
0	6623	59.373438344983	0.05862021922
0	6629	59.432058564203	0.024319479394
0	6634	59.456378043597	0.045246871436
0	6640	59.501624915033	0.049775420007
0	6645	59.55140033504	0.01114467017
0	6650	59.56254500521	0.040229877976
0	6656	59.602774883186	0.040688757032
0	6661	59.643463640218	0.069076171077
0	6666	59.712539811295	0.171583239638
0	6672	59.884123050933	0.044720013946
0	6677	59.928843064879	0.111923921447
0	6682	60.040766986326	0.334793082716
0	6690	60.375560069042	4.2430848e-05
0	6692	60.37560249989	0.003004323295
0	6694	60.378606823185	0.057600956633
0	6705	60.436207779818	0.007759700176
0	6707	60.443967479994	0.077671519154
0	6715	60.521638999148	0.111908873771
0	6721	60.633547872919	0.026246419963
0	6726	60.659794292882	0.011091067844
0	6731	60.670885360726	0.084323358689
0	6736	60.755208719415	0.003305145325
0	6738	60.75851386474	0.078627740247
0	6747	60.837141604987	0.086255535927
0	6752	60.923397140914	0.001683637709
0	6754	60.925080778623	0.138028602841
0	6763	61.063109381464	0.00264915956
0	6765	61.065758541024	0.034217950435
0	6775	61.099976491459	0.135646038884
0	6783	61.235622530343	0.064707719252
0	6788	61.300330249595	0.098340992554
0	6793	61.398671242149	0.013407272544
0	6798	61.412078514693	0.012395575866
0	6803	61.424474090559	0.022031242567
0	6808	61.446505333126	0.061406287283
0	6813	61.507911620409	0.085415856474
0	6818	61.593327476883	0.01383557325
0	6823	61.607163050133	0.021927036351
0	6829	61.629090086484	0.037839812237
0	6834	61.666929898721	0.049361516345
0	6839	61.716291415066	0.064907988348
0	6845	61.781199403414	0.167768553576
0	6851	61.94896795699	0.020205363656
0	6856	61.969173320646	0.093092179219
0	6861	62.062265499865	0.056226325832
0	6866	62.118491825697	0.033578935979
0	6871	62.152070761676	0.013251926253
0	6876	62.165322687929	0.058679259581
0	6882	62.22400194751	0.024328447596
0	6887	62.248330395106	0.081439694885
0	6893	62.329770089991	0.026041417125
0	6899	62.355811507116	0.033079273733
0	6904	62.388890780849	0.074016151995
0	6910	62.462906932844	0.02265513454
0	6915	62.485562067384	0.008955478213
0	6921	62.494517545597	0.087756680877
0	6926	62.582274226474	0.029674178537
0	6932	62.611948405011	0.051915267786
0	6938	62.663863672797	0.022351323519
0	6943	62.686214996316	0.217073132713
0	6952	62.903288129029	0.073539447896
0	6957	62.976827576925	0.078948626868
0	6962	63.055776203793	0.005177306709
0	6964	63.060953510502	0.139173789127
0	6973	63.200127299629	0.010863086599
0	6978	63.210990386228	0.033584366604
0	6983	63.244574752832	0.008807233559
0	6988	63.253381986391	0.035181445729
0	6994	63.28856343212	0.012199496474
0	6999	63.300762928594	0.167899984735
0	7005	63.468662913329	0.350773748397
0	7014	63.819436661726	0.003349433672
0	7016	63.822786095398	0.13242945578
0	7024	63.955215551178	0.012438721244
0	7029	63.967654272422	0.041421794732
0	7034	64.009076067154	0.003428951789
0	7036	64.012505018943	0.085618331489
0	7046	64.098123350432	0.011409574108
0	7052	64.10953292454	0.030380189618
0	7057	64.139913114158	0.116342613627
0	7064	64.256255727785	0.055713339772
0	7070	64.311969067557	0.073600878566
0	7075	64.385569946123	0.019555651686
0	7080	64.405125597809	0.091319744816
0	7086	64.496445342625	0.032961131583
0	7091	64.529406474208	0.030430349259
0	7097	64.559836823467	0.004590370735
0	7099	64.564427194202	0.004481145013
0	7104	64.568908339215	0.055685019797
0	7112	64.624593359012	0.053931573011
0	7118	64.678524932023	0.047477743533
0	7123	64.726002675556	0.00402515091
0	7125	64.730027826466	0.084238630698
0	7133	64.814266457164	0.108694589803
0	7138	64.922961046967	0.046680407888
0	7143	64.969641454855	0.08239496484
0	7148	65.052036419695	0.037749276712
0	7154	65.089785696407	0.050857808367
0	7160	65.140643504774	0.003721623858
0	7162	65.144365128632	0.035270307916
0	7170	65.179635436548	0.015447420764
0	7175	65.195082857312	0.030431171413
0	7181	65.225514028725	0.176782214662
0	7186	65.402296243387	0.085565858467
0	7191	65.487862101854	0.176895895571
0	7198	65.664757997425	0.094704733414
0	7203	65.759462730839	0.010686981943
0	7208	65.770149712782	0.040780020479
0	7214	65.810929733261	0.038592249412
0	7220	65.849521982673	0.005423502858
0	7222	65.854945485531	0.001228036912
0	7224	65.856173522443	0.07988563931
0	7236	65.936059161753	0.023374213698
0	7241	65.959433375451	0.062513362248
0	7247	66.021946737699	0.076903953204
0	7253	66.098850690903	0.068232373713
0	7258	66.167083064616	0.085816737873
0	7263	66.252899802489	0.089520710413
0	7269	66.342420512902	0.01375479822
0	7274	66.356175311122	0.045975887328
0	7279	66.40215119845	0.101057259026
0	7286	66.503208457476	0.05646694524
0	7291	66.559675402716	0.049351182177
0	7296	66.609026584893	0.070138738603
0	7302	66.679165323496	0.03302256626
0	7308	66.712187889756	0.088170616277
0	7316	66.800358506033	0.003063992662
0	7318	66.803422498695	0.014481215682
0	7326	66.817903714377	0.016706727515
0	7331	66.834610441892	0.010979230181
0	7337	66.845589672073	0.055147589244
0	7342	66.900737261317	0.058801527926
0	7347	66.959538789243	0.015959849751
0	7352	66.975498638994	0.003489060075
0	7354	66.978987699069	0.054835818113
0	7362	67.033823517182	0.009176098931
0	7367	67.042999616113	0.081560693549
0	7372	67.124560309662	0.047456635322
0	7378	67.172016944984	0.053670848961
0	7385	67.225687793945	0.110805249588
0	7390	67.336493043533	0.02448967072
0	7395	67.360982714253	0.128514730246
0	7403	67.489497444499	0.006143218956
0	7405	67.495640663455	0.032823539948
0	7413	67.528464203403	0.043340895018
0	7418	67.571805098421	0.040485642787
0	7423	67.612290741208	0.010821752012
0	7428	67.62311249322	0.072269140486
0	7434	67.695381633706	0.041559107237
0	7439	67.736940740943	0.005079343412
0	7441	67.742020084355	0.066690457901
0	7449	67.808710542256	0.03623650783
0	7455	67.844947050086	0.017421087558
0	7460	67.862368137644	0.042820879221
0	7466	67.905189016865	0.004919932808
0	7468	67.910108949673	0.066303954086
0	7476	67.976412903759	0.075436404928
0	7482	68.051849308687	0.079959030334
0	7488	68.131808339021	0.001396477745
0	7491	68.133204816766	0.002242229648
0	7493	68.135447046414	0.012476554238
0	7501	68.147923600652	0.125731355869
0	7511	68.273654956521	0.057544074458
0	7517	68.331199030979	0.112139566536
0	7522	68.443338597515	0.013365762854
0	7527	68.456704360369	0.030232380602
0	7534	68.486936740971	0.013120967866
0	7540	68.500057708837	0.007756450478
0	7545	68.507814159315	0.132963451332
0	7552	68.640777610647	0.086683614918
0	7557	68.727461225565	0.072378492037
0	7564	68.799839717602	0.122472274482
0	7571	68.922311992084	0.00857750739
0	7576	68.930889499474	0.054661141411
0	7582	68.985550640885	0.146422200885
0	7587	69.13197284177	0.040944969811
0	7592	69.172917811581	0.006626003598
0	7594	69.179543815179	0.035937728737
0	7602	69.215481543916	0.004983786016
0	7605	69.220465329932	0.027581251143
0	7613	69.248046581075	0.039888743872
0	7618	69.287935324947	0.105943176359
0	7623	69.393878501306	0.112462425339
0	7628	69.506340926645	0.036552918217
0	7633	69.542893844862	0.000250438505
0	7635	69.543144283367	0.015479724863
0	7643	69.55862400823	0.014643310891
0	7648	69.573267319121	0.14717940725
0	7654	69.720446726371	0.210409932089
0	7659	69.93085665846	0.011676889336
0	7665	69.942533547796	0.037849127231
0	7670	69.980382675027	0.011376951198
0	7675	69.991759626225	0.12350371015
0	7682	70.115263336375	0.004100505765
0	7684	70.11936384214	0.039217054345
0	7693	70.158580896485	0.209202176915
0	7701	70.3677830734	0.140322707181
0	7706	70.508105780581	0.000878032872
0	7708	70.508983813453	0.067297431451
0	7716	70.576281244904	0.097302503479
0	7721	70.673583748383	0.018262017661
0	7727	70.691845766044	0.007784055746
0	7732	70.69962982179	0.016394457672
0	7737	70.716024279462	0.035990134563
0	7742	70.752014414025	0.029728865296
0	7747	70.781743279321	0.029621427603
0	7752	70.811364706924	0.105538228443
0	7757	70.916902935367	0.001349511928
0	7759	70.918252447295	0.04164190654
0	7768	70.959894353835	0.072502140849
0	7774	71.032396494684	0.039998898556
0	7779	71.07239539324	0.031778089217
0	7784	71.104173482457	0.003557072419
0	7787	71.107730554876	0.037937240552
0	7796	71.145667795428	0.001572129404
0	7798	71.147239924832	0.010384874394
0	7803	71.157624799226	0.01398167743
0	7812	71.171606476656	0.108554662867
0	7818	71.280161139523	0.106274511859
0	7825	71.386435651382	0.00027656107
0	7827	71.386712212452	0.192725522115
0	7837	71.579437734567	0.041039552248
0	7842	71.620477286815	0.069797579281
0	7848	71.690274866096	0.042772401776
0	7853	71.733047267872	0.004646655755
0	7855	71.737693923627	0.11856015874
0	7864	71.856254082367	0.059827565095
0	7869	71.916081647462	0.077801168457
0	7874	71.993882815919	0.017129316173
0	7879	72.011012132092	0.027967703644
0	7884	72.038979835736	0.005162104321
0	7886	72.044141940057	0.085125403421
0	7895	72.129267343478	0.012410330749
0	7900	72.141677674227	0.044087908877
0	7906	72.185765583104	0.013645292019
0	7911	72.199410875123	0.014716271803
0	7916	72.214127146926	0.054169833232
0	7922	72.268296980158	0.003790384426
0	7924	72.272087364584	0.008517697275
0	7929	72.280605061859	0.018073722053
0	7937	72.298678783912	0.008815176023
0	7942	72.307493959935	0.01528698673
0	7947	72.322780946665	0.040125326016
0	7953	72.362906272681	0.061200391017
0	7959	72.424106663698	0.024106440472
0	7964	72.44821310417	0.012555758167
0	7969	72.460768862337	0.008834402609
0	7975	72.469603264946	0.087157194956
0	7980	72.556760459902	0.008028726467
0	7985	72.564789186369	0.026492712274
0	7990	72.591281898643	0.163641404617
0	7995	72.75492330326	0.061394444049
0	8001	72.816317747309	0.034963000015
0	8006	72.851280747324	0.029407321598
0	8012	72.880688068922	0.045825960174
0	8017	72.926514029096	0.140227827562
0	8023	73.066741856658	0.098652254053
0	8030	73.165394110711	0.026244401698
0	8035	73.191638512409	0.002196700021
0	8037	73.19383521243	0.025435656939
0	8045	73.219270869369	0.0170528943
0	8051	73.236323763669	0.108088490242
0	8057	73.344412253911	0.002085490934
0	8059	73.346497744845	0.046068114544
0	8070	73.392565859389	0.065164847115
0	8075	73.457730706504	0.007023227437
0	8077	73.464753933941	0.066052381451
0	8085	73.530806315392	0.149108995764
0	8091	73.679915311156	0.046985232846
0	8097	73.726900544002	0.00937466606
0	8102	73.736275210062	0.00824227725
0	8107	73.744517487312	0.117154978933
0	8112	73.861672466245	0.008462208197
0	8117	73.870134674442	0.051503262675
0	8122	73.921637937117	0.02608300472
0	8127	73.947720941837	0.005139827677
0	8129	73.952860769514	0.04720400108
0	8137	74.000064770594	0.013108138101
0	8143	74.013172908695	0.015557498717
0	8148	74.028730407412	0.008997176665
0	8153	74.037727584077	0.05711732598
0	8158	74.094844910057	0.048166971697
0	8163	74.143011881754	0.087094267303
0	8168	74.230106149057	0.033552093541
0	8173	74.263658242598	0.048759599265
0	8179	74.312417841863	0.004168259603
0	8181	74.316586101466	0.047860229075
0	8189	74.364446330541	0.101636034974
0	8194	74.466082365515	0.011710559873
0	8199	74.477792925388	0.113321493015
0	8204	74.591114418403	0.03763361337
0	8209	74.628748031773	0.01469006709
0	8214	74.643438098863	0.064933581567
0	8219	74.70837168043	0.008873932901
0	8224	74.717245613331	0.144549979849
0	8229	74.86179559318	0.02330865334
0	8234	74.88510424652	0.030881063545
0	8239	74.915985310065	0.009345213075
0	8245	74.92533052314	0.034862448078
0	8251	74.960192971218	0.055613081337
0	8256	75.015806052555	0.12662059661
0	8261	75.142426649165	0.105931640119
0	8268	75.248358289284	0.047845100014
0	8273	75.296203389298	0.122152833764
0	8278	75.418356223062	0.144838998094
0	8286	75.563195221156	0.000923871672
0	8288	75.564119092828	0.022804665969
0	8296	75.586923758797	0.010903274036
0	8301	75.597827032833	0.123274574765
0	8309	75.721101607598	0.051928508934
0	8314	75.773030116532	0.013947570184
0	8319	75.786977686716	0.027998059169
0	8324	75.814975745885	0.083596286011
0	8329	75.898572031896	0.148777503392
0	8334	76.047349535288	0.067645871435
0	8339	76.114995406723	0.015274757903
0	8344	76.130270164626	0.062806600821
0	8349	76.193076765447	0.063004705533
0	8355	76.25608147098	0.02319224321
0	8360	76.27927371419	0.018191725638
0	8365	76.297465439828	0.017157397192
0	8370	76.31462283702	0.025392439058
0	8375	76.340015276078	0.079368059909
0	8380	76.419383335987	0.054240327927
0	8385	76.473623663914	0.064059186018
0	8392	76.537682849932	0.033608844006
0	8399	76.571291693938	0.004787462685
0	8401	76.576079156623	0.008974848394
0	8407	76.585054005017	0.006905347843
0	8413	76.59195935286	0.030121514401
0	8421	76.622080867261	0.031941386426
0	8426	76.654022253687	0.20616170622
0	8434	76.860183959907	0.057326017498
0	8439	76.917509977405	0.043332464563
0	8444	76.960842441968	0.001946781883
0	8446	76.962789223851	0.064415247727
0	8454	77.027204471578	0.066872701513
0	8459	77.094077173091	0.036967258044
0	8465	77.131044431135	0.083037193475
0	8470	77.21408162461	0.00171018323
0	8472	77.21579180784	0.063746354829
0	8480	77.279538162669	0.018252152223
0	8485	77.297790314892	0.072616864159
0	8491	77.370407179051	0.0359535881
0	8496	77.406360767151	0.168805801991
0	8502	77.575166569142	0.055402528291
0	8507	77.630569097433	0.018549553431
0	8512	77.649118650864	0.072343745622
0	8519	77.721462396486	0.018975866907
0	8524	77.740438263393	0.156874538374
0	8529	77.897312801767	0.028880326924
0	8534	77.926193128691	0.050927040782
0	8539	77.977120169473	0.183355317826
0	8545	78.160475487299	0.017916168059
0	8551	78.178391655358	0.047069010175
0	8557	78.225460665533	0.012610978769
0	8563	78.238071644302	0.003650324868
0	8565	78.24172196917	0.000228911932
0	8567	78.241950881102	0.015960414345
0	8575	78.257911295447	0.079213580067
0	8584	78.337124875514	0.038302070922
0	8591	78.375426946436	0.122977009768
0	8596	78.498403956204	0.016426691484
0	8601	78.514830647688	0.007428156318
0	8603	78.522258804006	0.030470408588
0	8611	78.552729212594	0.067840621367
0	8616	78.620569833961	0.007003386961
0	8618	78.627573220922	0.008238383217
0	8623	78.635811604139	0.000669821816
0	8628	78.636481425955	0.013096466562
0	8633	78.649577892517	0.024837893277
0	8642	78.674415785794	0.027913560197
0	8647	78.702329345991	0.018902391962
0	8652	78.721231737953	0.00913293299
0	8657	78.730364670943	0.058062261959
0	8662	78.788426932902	0.152608058317
0	8667	78.941034991219	0.202788959637
0	8674	79.143823950856	0.16088836429
0	8680	79.304712315146	0.031396928298
0	8685	79.336109243444	0.003713630748
0	8687	79.339822874192	0.118001553504
0	8698	79.457824427696	0.012328904335
0	8703	79.470153332031	0.013784022972
0	8708	79.483937355003	0.091246206451
0	8713	79.575183561454	0.003687820835
0	8715	79.578871382289	0.03623084165
0	8725	79.615102223939	0.000671999401
0	8727	79.61577422334	0.062033207173
0	8735	79.677807430513	0.04252787913
0	8740	79.720335309643	0.338026161374
0	8747	80.058361471017	0.015029158524
0	8752	80.073390629541	0.048476140717
0	8757	80.121866770258	0.039038238261
0	8762	80.160905008519	0.014103630452
0	8767	80.175008638971	0.063200496344
0	8772	80.238209135315	0.006374526005
0	8774	80.24458366132	0.037220871166
0	8782	80.281804532486	0.003075601839
0	8784	80.284880134325	0.004210563464
0	8786	80.289090697789	0.01865215317
0	8797	80.307742850959	0.010063914281
0	8802	80.31780676524	0.017858687436
0	8807	80.335665452676	0.000838833815
0	8809	80.336504286491	0.015347416463
0	8817	80.351851702954	0.051426479501
0	8822	80.403278182455	0.034357006226
0	8827	80.437635188681	0.007634632719
0	8829	80.4452698214	0.021583952576
0	8837	80.466853773976	0.004779576358
0	8839	80.471633350334	0.055126850963
0	8849	80.526760201297	0.036494460285
0	8855	80.563254661582	0.064578721794
0	8861	80.627833383376	0.020184267972
0	8866	80.648017651348	0.031924327357
0	8871	80.679941978705	0.040592111256
0	8876	80.720534089961	0.021853230629
0	8881	80.74238732059	0.004158112205
0	8883	80.746545432795	0.038199664373
0	8892	80.784745097168	0.010551615264
0	8898	80.795296712432	0.085596150702
0	8904	80.880892863134	0.002819862071
0	8906	80.883712725205	0.211475734269
0	8915	81.095188459474	0.018454522565
0	8920	81.113642982039	0.05625111811
0	8925	81.169894100149	0.100304004221
0	8931	81.27019810437	0.005810131428
0	8933	81.276008235798	0.09438726396
0	8941	81.370395499758	0.016629867859
0	8946	81.387025367617	0.021349329569
0	8951	81.408374697186	0.047268985949
0	8956	81.455643683135	0.028430675354
0	8961	81.484074358489	0.004916596327
0	8963	81.488990954816	0.009545690836
0	8968	81.498536645652	0.087195237041
0	8976	81.585731882693	0.076708012363
0	8981	81.662439895056	0.023985620667
0	8988	81.686425515723	0.041688395134
0	8993	81.728113910857	0.013834233271
0	8998	81.741948144128	0.037465885679
0	9003	81.779414029807	0.018321215452
0	9008	81.797735245259	0.06009403041
0	9013	81.857829275669	0.024446917262
0	9018	81.882276192931	0.094695539773
0	9024	81.976971732704	0.003580358176
0	9026	81.98055209088	0.005452512566
0	9031	81.986004603446	0.027930681954
0	9040	82.0139352854	0.144855112625
0	9045	82.158790398025	0.033898203442
0	9050	82.192688601467	0.007932254778
0	9052	82.200620856245	0.007074570423
0	9057	82.207695426668	0.027829717575
0	9065	82.235525144243	0.054947851552
0	9070	82.290472995795	0.029769806109
0	9076	82.320242801904	0.09064963632
0	9082	82.410892438224	0.063023831068
0	9087	82.473916269292	0.024482519841
0	9093	82.498398789133	0.008802020236
0	9098	82.507200809369	0.043682007973
0	9103	82.550882817342	0.035649642275
0	9108	82.586532459617	0.047926248718
0	9114	82.634458708335	0.009266331666
0	9119	82.643725040001	0.090087350444
0	9124	82.733812390445	0.000484423306
0	9126	82.734296813751	0.006872548189
0	9128	82.74116936194	0.013857677577
0	9136	82.755027039517	0.013441455352
0	9144	82.768468494869	0.048905112529
0	9149	82.817373607398	0.023810925379
0	9154	82.841184532777	0.018009096576
0	9159	82.859193629353	0.027682471432
0	9164	82.886876100785	0.00370169307
0	9166	82.890577793855	0.068085551481
0	9174	82.958663345336	0.045578746308
0	9180	83.004242091644	0.042110244003
0	9185	83.046352335647	0.103363202756
0	9190	83.149715538403	0.013100005639
0	9195	83.162815544042	0.0118181435
0	9200	83.174633687542	0.023130765204
0	9205	83.197764452746	0.000905299088
0	9207	83.198669751834	0.08883298144
0	9216	83.287502733274	0.077152977498
0	9221	83.364655710772	0.028760620025
0	9227	83.393416330797	0.022336452758
0	9232	83.415752783555	0.023386584958
0	9237	83.439139368513	0.004336528894
0	9239	83.443475897407	0.08250236205
0	9249	83.525978259457	0.071110451491
0	9255	83.597088710948	0.005138949954
0	9257	83.602227660902	0.039216356757
0	9265	83.641444017659	0.010957413303
0	9270	83.652401430962	0.021510920414
0	9275	83.673912351376	0.006122955758
0	9277	83.680035307134	0.006618710314
0	9283	83.686654017448	0.010424604564
0	9288	83.697078622012	0.003336830716
0	9293	83.700415452728	0.169849956531
0	9301	83.870265409259	0.061057648253
0	9306	83.931323057512	0.055720448422
0	9312	83.987043505934	0.015659919247
0	9317	84.002703425181	0.034382454715
0	9323	84.037085879896	0.042958324009
0	9328	84.080044203905	0.038381335327
0	9333	84.118425539232	0.31261293559
0	9340	84.431038474822	0.018676307849
0	9345	84.449714782671	0.077352573398
0	9350	84.527067356069	0.000527864469
0	9352	84.527595220538	0.017867030872
0	9360	84.54546225141	0.017864432783
0	9365	84.563326684193	0.202148325658
0	9372	84.765475009851	0.004686314379
0	9374	84.77016132423	0.000437357047
0	9376	84.770598681277	0.011478195488
0	9384	84.782076876765	0.077551631365
0	9392	84.85962850813	0.019257287
0	9397	84.87888579513	0.024504794634
0	9402	84.903390589764	0.070697221334
0	9407	84.974087811098	0.123833255787
0	9415	85.097921066885	0.024318014346
0	9420	85.122239081231	0.016044683411
0	9425	85.138283764642	0.08066256202
0	9430	85.218946326662	0.024876373157
0	9435	85.243822699819	0.05022906822
0	9440	85.294051768039	0.07689470271
0	9445	85.370946470749	0.008964382732
0	9450	85.379910853481	0.002974584544
0	9452	85.382885438025	0.103069479626
0	9460	85.485954917651	0.028805605924
0	9467	85.514760523575	0.026327828454
0	9472	85.541088352029	0.108762759624
0	9477	85.649851111653	0.01244990515
0	9482	85.662301016803	7.0804559e-05
0	9484	85.662371821362	0.025676253489
0	9492	85.688048074851	0.073181188341
0	9497	85.761229263192	0.051236108716
0	9503	85.812465371908	0.047852562554
0	9508	85.860317934462	0.074866113419
0	9513	85.935184047881	0.012927162615
0	9518	85.948111210496	0.013843020165
0	9524	85.961954230661	0.065171926313
0	9529	86.027126156974	0.063005538059
0	9535	86.090131695033	0.04489510556
0	9540	86.135026800593	0.07243664324
0	9545	86.207463443833	0.044251790821
0	9551	86.251715234654	0.069744586202
0	9557	86.321459820856	0.00370025718
0	9559	86.325160078036	0.062094995651
0	9567	86.387255073687	0.030630987909
0	9572	86.417886061596	0.070213737699
0	9577	86.488099799295	0.088392932651
0	9582	86.576492731946	0.012708466972
0	9587	86.589201198918	0.026272577907
0	9593	86.615473776825	0.024564978017
0	9598	86.640038754842	0.037039354092
0	9603	86.677078108934	0.054122048719
0	9608	86.731200157653	0.018658588081
0	9614	86.749858745734	0.000859001926
0	9616	86.75071774766	0.022548834491
0	9624	86.773266582151	0.010384071424
0	9629	86.783650653575	0.117790492337
0	9634	86.901441145912	0.046423337314
0	9639	86.947864483226	0.038771057582
0	9644	86.986635540808	0.071754748653
0	9651	87.058390289461	0.021419151719
0	9656	87.07980944118	0.011555241273
0	9661	87.091364682453	0.014280700416
0	9666	87.105645382869	0.092925565491
0	9671	87.19857094836	0.024063500176
0	9677	87.222634448536	0.033948509984
0	9682	87.25658295852	0.064821454507
0	9687	87.321404413027	0.062133215214
0	9694	87.383537628241	0.130275984276
0	9701	87.513813612517	0.049318720063
0	9706	87.56313233258	0.087283581712
0	9713	87.650415914292	0.092384951703
0	9721	87.742800865995	0.06228909388
0	9727	87.805089959875	0.130493906334
0	9732	87.935583866209	0.012841564708
0	9737	87.948425430917	0.020605137115
0	9742	87.969030568032	0.044326430613
0	9747	88.013356998645	0.121650274503
0	9753	88.135007273148	0.037622302193
0	9759	88.172629575341	0.063738824659
0	9764	88.2363684	0.057574254465
0	9770	88.293942654465	0.025119230772
0	9775	88.319061885237	0.168465836092
0	9780	88.487527721329	0.078386593934
0	9785	88.565914315263	0.094298750565
0	9790	88.660213065828	0.138226037661
0	9797	88.798439103489	0.128598108046
0	9802	88.927037211535	0.100716113384
0	9807	89.027753324919	0.01808491115
0	9812	89.045838236069	0.065599300406
0	9817	89.111437536475	0.033483347782
0	9823	89.144920884257	0.048750648322
0	9828	89.193671532579	0.014078330816
0	9833	89.207749863395	0.096737804546
0	9838	89.304487667941	0.064146951695
0	9843	89.368634619636	0.057054735465
0	9850	89.425689355101	0.051911252167
0	9856	89.477600607268	0.273328394433
0	9863	89.750929001701	0.099070647678
0	9868	89.849999649379	0.016660057187
0	9873	89.866659706566	0.019966190964
0	9878	89.88662589753	0.063201241069
0	9886	89.949827138599	0.016201117693
0	9891	89.966028256292	0.036693933994
0	9896	90.002722190286	0.103547249332
0	9903	90.106269439618	0.164169633128
0	9909	90.270439072746	0.016565127578
0	9914	90.287004200324	0.20177368845
0	9920	90.488777888774	0.012021103789
0	9925	90.500798992563	0.022296811318
0	9930	90.523095803881	0.046412525439
0	9935	90.56950832932	0.001553685625
0	9937	90.571062014945	0.041292330883
0	9946	90.612354345828	0.062896645174
0	9951	90.675250991002	0.116835713401
0	9956	90.792086704403	0.083405210003
0	9961	90.875491914406	0.020099174781
0	9966	90.895591089187	0.002473755657
0	9968	90.898064844844	0.003205835764
0	9970	90.901270680608	0.010785404889
0	9975	90.912056085497	0.005921541138
0	9980	90.917977626635	0.004636027901
0	9985	90.922613654536	0.03421468133
0	9996	90.956828335866	0.273874012769
0	10002	91.230702348635	0.025569140588
0	10008	91.256271489223	0.067230330112
0	10013	91.323501819335	0.020807829289
0	10018	91.344309648624	0.110446411641
0	10023	91.454756060265	0.171320025414
0	10030	91.626076085679	0.039403550681
0	10035	91.66547963636	0.066140260471
0	10042	91.731619896831	0.024541735776
0	10047	91.756161632607	0.120463489368
0	10054	91.876625121975	0.035201717103
0	10059	91.911826839078	0.068102302751
0	10064	91.979929141829	0.02688042788
0	10069	92.006809569709	0.02783422433
0	10074	92.034643794039	0.348551869435
0	10083	92.383195663474	0.084621671395
0	10091	92.467817334869	0.045191172908
0	10096	92.513008507777	0.036260808238
0	10101	92.549269316015	0.082513010071
0	10108	92.631782326086	0.116761327503
0	10115	92.748543653589	0.085308967083
0	10121	92.833852620672	0.019590621212
0	10126	92.853443241884	0.031522121903
0	10132	92.884965363787	0.037525583814
0	10137	92.922490947601	0.03766439947
0	10142	92.960155347071	0.083401753604
0	10147	93.043557100675	0.06892402345
0	10154	93.112481124125	0.00122638761
0	10156	93.113707511735	0.035987652101
0	10164	93.149695163836	0.029615016403
0	10169	93.179310180239	0.0048323468
0	10171	93.184142527039	0.009507903805
0	10176	93.193650430844	0.025874914336
0	10184	93.21952534518	0.068479055241
0	10189	93.288004400421	0.005582874675
0	10191	93.293587275096	0.031889136244
0	10199	93.32547641134	0.110368449119
0	10206	93.435844860459	0.06988462718
0	10211	93.505729487639	0.008351382484
0	10213	93.514080870123	0.010038685133
0	10221	93.524119555256	0.005496871659
0	10223	93.529616426915	0.033687401394
0	10231	93.563303828309	0.032469961926
0	10236	93.595773790235	0.105827671719
0	10242	93.701601461954	0.039021276604
0	10247	93.740622738558	0.057281273822
0	10252	93.79790401238	0.031972028287
0	10257	93.829876040667	0.014620496057
0	10263	93.844496536724	0.045640920525
0	10268	93.890137457249	0.035032747333
0	10273	93.925170204582	0.131957259722
0	10279	94.057127464304	0.225707467228
0	10285	94.282834931532	0.017652974168
0	10290	94.3004879057	0.027884397419
0	10296	94.328372303119	0.062288694563
0	10301	94.390660997682	0.05562460168
0	10306	94.446285599362	0.18017148544
0	10312	94.626457084802	0.030689048404
0	10317	94.657146133206	0.05305237126
0	10323	94.710198504466	0.01024390168
0	10328	94.720442406146	0.027520116815
0	10333	94.747962522961	0.035841382017
0	10338	94.783803904978	0.030039315497
0	10343	94.813843220475	0.036673484619
0	10348	94.850516705094	0.008749784404
0	10353	94.859266489498	0.031830823077
0	10358	94.891097312575	0.086218206632
0	10363	94.977315519207	0.039126102303
0	10368	95.01644162151	0.151617187502
0	10373	95.168058809012	0.011904319087
0	10378	95.179963128099	0.051379894645
0	10383	95.231343022744	0.039000802989
0	10389	95.270343825733	0.026323608385
0	10395	95.296667434118	0.049611013471
0	10400	95.346278447589	0.00035066974
0	10402	95.346629117329	0.028800032137
0	10411	95.375429149466	0.044634747411
0	10417	95.420063896877	0.035928466773
0	10422	95.45599236365	0.009624116314
0	10427	95.465616479964	0.000546414086
0	10429	95.46616289405	0.124626329503
0	10437	95.590789223553	0.034809059882
0	10442	95.625598283435	0.06625934152
0	10447	95.691857624955	0.041688964097
0	10452	95.733546589052	0.004151081453
0	10454	95.737697670505	0.04486461763
0	10462	95.782562288135	0.020676963795
0	10467	95.80323925193	0.019137156021
0	10472	95.822376407951	0.059721275718
0	10477	95.882097683669	0.024797984245
0	10482	95.906895667914	0.053589407647
0	10487	95.960485075561	0.097949226718
0	10493	96.058434302279	0.003997254913
0	10495	96.062431557192	0.036939254752
0	10503	96.099370811944	0.016233020704
0	10508	96.115603832648	0.121310917589
0	10513	96.236914750237	0.006047574293
0	10515	96.24296232453	0.00081111282
0	10517	96.24377343735	0.025613213655
0	10528	96.269386651005	0.020866829798
0	10533	96.290253480803	0.086410700547
0	10538	96.37666418135	0.006912570787
0	10540	96.383576752137	0.039498880355
0	10549	96.423075632492	0.00277792423
0	10551	96.425853556722	0.034162475511
0	10559	96.460016032233	0.099141164329
0	10564	96.559157196562	0.034984612573
0	10570	96.594141809135	0.09718996429
0	10575	96.691331773425	0.02902199982
0	10580	96.720353773245	0.075520965252
0	10586	96.795874738497	0.152489590189
0	10592	96.948364328686	0.040356791789
0	10598	96.988721120475	0.075763723037
0	10604	97.064484843512	0.021235673283
0	10609	97.085720516795	0.023022647526
0	10614	97.108743164321	0.049850002633
0	10620	97.158593166954	0.050055455782
0	10625	97.208648622736	0.065136797338
0	10631	97.273785420074	0.04050435022
0	10636	97.314289770294	0.033392442812
0	10642	97.347682213106	0.007959865315
0	10644	97.355642078421	0.008755104458
0	10649	97.364397182879	0.022901218805
0	10657	97.387298401684	0.055090025968
0	10662	97.442388427652	0.055441901656
0	10667	97.497830329308	0.025069179543
0	10672	97.522899508851	0.000855632536
0	10674	97.523755141387	0.000445138595
0	10676	97.524200279982	0.043726679717
0	10687	97.567926959699	0.079672165742
0	10693	97.647599125441	0.056546360641
0	10699	97.704145486082	0.016591998766
0	10704	97.720737484848	0.073215234559
0	10709	97.793952719407	0.03861747464
0	10714	97.832570194047	0.01584673259
0	10720	97.848416926637	0.006073612825
0	10722	97.854490539462	0.283039585604
0	10733	98.137530125066	0.062504161704
0	10739	98.20003428677	0.039380224523
0	10744	98.239414511293	0.116000554662
0	10750	98.355415065955	0.012317798604
0	10755	98.367732864559	0.046041383462
0	10760	98.413774248021	0.017284419317
0	10766	98.431058667338	0.018475304766
0	10771	98.449533972104	0.002442477714
0	10773	98.451976449818	0.132875467124
0	10781	98.584851916942	0.067555571183
0	10786	98.652407488125	0.280323967611
0	10796	98.932731455736	0.001970410654
0	10798	98.93470186639	0.028186703957
0	10807	98.962888570347	0.037694567102
0	10812	99.000583137449	0.025154965994
0	10817	99.025738103443	0.015530186657
0	10822	99.0412682901	0.044201828158
0	10827	99.085470118258	0.027014158085
0	10832	99.112484276343	0.065284432189
0	10837	99.177768708532	0.003243955893
0	10839	99.181012664425	0.067429950931
0	10848	99.248442615356	0.054219083202
0	10853	99.302661698558	0.02787056214
0	10858	99.330532260698	0.058066370105
0	10863	99.388598630803	0.012680786835
0	10868	99.401279417638	0.044371272294
0	10873	99.445650689932	0.033642690618
0	10878	99.47929338055	0.03379192583
0	10885	99.51308530638	0.014960695936
0	10890	99.528046002316	0.02476700772
0	10895	99.552813010036	0.033452903772
0	10900	99.586265913808	0.041879580823
0	10905	99.628145494631	0.001503957086
0	10907	99.629649451717	0.095459580645
0	10916	99.725109032362	0.126252231297
0	10922	99.851361263659	0.031456890976
0	10928	99.882818154635	0.028452877595
0	10933	99.91127103223	0.089364888284
0	10939	100.000635920514	0.058798572582
0	10945	100.059434493096	0.017435245712
0	10951	100.076869738808	0.014634300352
0	10956	100.09150403916	0.052124904243
0	10962	100.143628943403	0.005491317951
0	10964	100.149120261354	0.044532519461
0	10973	100.193652780815	0.01670120282
0	10978	100.210353983635	0.093610249084
0	10984	100.303964232719	0.038400857725
0	10989	100.342365090444	0.146298444772
0	10995	100.488663535216	0.002054496645
0	10997	100.490718031861	0.060975900234
0	11005	100.551693932095	0.166257264763
0	11014	100.717951196858	0.051834360695
0	11019	100.769785557553	0.033177837285
0	11024	100.802963394838	0.016516850189
0	11029	100.819480245027	0.002587216845
0	11031	100.822067461872	0.040384074035
0	11039	100.862451535907	0.09328428482
0	11045	100.955735820727	0.003714985114
0	11047	100.959450805841	0.045639767874
0	11055	101.005090573715	0.001490039997
0	11057	101.006580613712	0.002148807155
0	11059	101.008729420867	8.0328992e-05
0	11061	101.008809749859	0.010058871453
0	11066	101.018868621312	0.029777977325
0	11080	101.048646598637	0.015354961074
0	11086	101.064001559711	0.024207216479
0	11092	101.08820877619	0.171993296052
0	11097	101.260202072242	0.048142685085
0	11102	101.308344757327	0.073183050246
0	11107	101.381527807573	0.029840035602
0	11112	101.411367843175	0.07778017143
0	11117	101.489148014605	0.040987238923
0	11123	101.530135253528	0.029984468778
0	11128	101.560119722306	0.067856684347
0	11133	101.627976406653	0.004265511247
0	11135	101.6322419179	0.022301739784
0	11143	101.654543657684	0.003145368767
0	11145	101.657689026451	0.046704558164
0	11153	101.704393584615	0.031168283501
0	11158	101.735561868116	0.063208892402
0	11163	101.798770760518	0.036692132153
0	11168	101.835462892671	0.003106719218
0	11171	101.838569611889	0.04681480531
0	11179	101.885384417199	0.010295040065
0	11185	101.895679457264	0.007449009319
0	11187	101.903128466583	0.024156185349
0	11195	101.927284651932	0.012488803292
0	11200	101.939773455224	0.036099911162
0	11206	101.975873366386	0.027193721313
0	11211	102.003067087699	0.039421851534
0	11217	102.042488939233	0.008315295482
0	11222	102.050804234715	0.04226643665
0	11227	102.093070671365	0.075610663753
0	11232	102.168681335118	0.020971448674
0	11237	102.189652783792	0.046183605454
0	11243	102.235836389246	0.00597956573
0	11245	102.241815954976	0.058077778772
0	11254	102.299893733748	0.038442529242
0	11259	102.33833626299	0.053866927539
0	11264	102.392203190529	0.030511326491
0	11269	102.42271451702	0.001018324002
0	11271	102.423732841022	0.008032690466
0	11276	102.431765531488	0.022932571313
0	11284	102.454698102801	0.018831964362
0	11289	102.473530067163	0.027939311595
0	11295	102.501469378758	0.061534139334
0	11300	102.563003518092	0.002764801222
0	11302	102.565768319314	0.040651911253
0	11310	102.606420230567	0.01381375455
0	11315	102.620233985117	0.017376959624
0	11320	102.637610944741	0.068919959493
0	11325	102.706530904234	0.100637074845
0	11331	102.807167979079	0.03071529552
0	11337	102.837883274599	0.004992497986
0	11339	102.842875772585	0.039823814531
0	11348	102.882699587116	0.020978383566
0	11354	102.903677970682	0.030857657744
0	11359	102.934535628426	0.014560448339
0	11364	102.949096076765	0.032234169708
0	11369	102.981330246473	0.020438074445
0	11375	103.001768320918	0.072621706553
0	11381	103.074390027471	0.026198553477
0	11386	103.100588580948	0.018363544872
0	11391	103.11895212582	0.100671880996
0	11397	103.219624006816	0.034048028334
0	11402	103.25367203515	0.001023549886
0	11404	103.254695585036	0.044093880022
0	11412	103.298789465058	0.109014803873
0	11417	103.407804268931	0.068595810089
0	11422	103.47640007902	0.021326199617
0	11427	103.497726278637	0.002269249991
0	11429	103.499995528628	0.001516262023
0	11431	103.501511790651	0.003862260035
0	11436	103.505374050686	0.024440447572
0	11448	103.529814498258	0.013397054961
0	11453	103.543211553219	0.002720302555
0	11455	103.545931855774	0.006650757771
0	11460	103.552582613545	0.027389778098
0	11468	103.579972391643	0.008830170674
0	11473	103.588802562317	0.073340251983
0	11479	103.6621428143	0.095135474684
0	11485	103.757278288984	0.000768301788
0	11487	103.758046590772	0.01478927208
0	11496	103.772835862852	0.005410123122
0	11498	103.778245985974	0.082271907966
0	11508	103.86051789394	0.006974153265
0	11510	103.867492047205	0.111031819115
0	11518	103.97852386632	0.006583388614
0	11520	103.985107254934	0.113292932836
0	11528	104.09840018777	0.019633960496
0	11533	104.118034148266	0.018798120726
0	11538	104.136832268992	0.050591089193
0	11544	104.187423358185	0.026956552552
0	11549	104.214379910737	0.054893756705
0	11554	104.269273667442	0.017825857043
0	11559	104.287099524485	0.04903966374
0	11565	104.336139188225	0.129607862246
0	11571	104.465747050471	0.005491650454
0	11573	104.471238700925	0.01676006661
0	11582	104.487998767535	0.011123988051
0	11587	104.499122755586	0.017879007371
0	11593	104.517001762957	0.011658568456
0	11598	104.528660331413	0.012376501765
0	11603	104.541036833178	0.16683915103
0	11611	104.707875984208	0.04643993907
0	11616	104.754315923278	0.002082422568
0	11618	104.756398345846	0.002359182562
0	11620	104.758757528408	0.028762916164
0	11633	104.787520444572	0.084451395505
0	11639	104.871971840077	0.040495207957
0	11644	104.912467048034	0.00935352069
0	11649	104.921820568724	0.023003684896
0	11654	104.94482425362	0.095657381494
0	11659	105.040481635114	0.079445077241
0	11664	105.119926712355	0.02594762433
0	11670	105.145874336685	0.079012876238
0	11675	105.224887212923	0.053518170821
0	11680	105.278405383744	0.048949104521
0	11685	105.327354488265	0.045916212954
0	11690	105.373270701219	0.035063711077
0	11696	105.408334412296	0.007882680424
0	11701	105.41621709272	0.018117141681
0	11706	105.434334234401	0.055957521943
0	11712	105.490291756344	0.001468443648
0	11714	105.491760199992	0.10921074883
0	11723	105.600970948822	0.191376724004
0	11729	105.792347672826	0.016119380697
0	11734	105.808467053523	0.127502024726
0	11741	105.935969078249	0.00893252378
0	11746	105.944901602029	0.024254059827
0	11751	105.969155661856	0.017495402319
0	11756	105.986651064175	0.039132266706
0	11762	106.025783330881	0.056873736157
0	11767	106.082657067038	0.017556395143
0	11772	106.100213462181	0.008380404614
0	11777	106.108593866795	0.083287259499
0	11782	106.191881126294	0.00090768469
0	11784	106.192788810984	0.099431305011
0	11792	106.292220115995	0.061953091005
0	11798	106.354173207	0.207925117089
0	11804	106.562098324089	0.12031408397
0	11810	106.682412408059	0.071637907932
0	11815	106.754050315991	0.001473581956
0	11817	106.755523897947	0.060786323022
0	11825	106.816310220969	0.126306813078
0	11830	106.942617034047	0.016217834345
0	11835	106.958834868392	0.002152915256
0	11837	106.960987783648	0.049305062059
0	11845	107.010292845707	0.11956087631
0	11853	107.129853722017	0.007460259679
0	11859	107.137313981696	0.024994797248
0	11864	107.162308778944	0.014802560941
0	11870	107.177111339885	0.002748851113
0	11872	107.179860190998	0.049811446815
0	11880	107.229671637813	0.058579421458
0	11886	107.288251059271	0.083294571887
0	11892	107.371545631158	0.098007192977
0	11897	107.469552824135	0.063186434271
0	11902	107.532739258406	0.022280318865
0	11907	107.555019577271	0.015884609041
0	11912	107.570904186312	0.012369810074
0	11918	107.583273996386	0.00736848862
0	11923	107.590642485006	0.226377610668
0	11930	107.817020095674	0.038054317914
0	11936	107.855074413588	0.060284107888
0	11942	107.915358521476	0.036286967639
0	11947	107.951645489115	0.009188512771
0	11952	107.960834001886	0.108715668514
0	11958	108.0695496704	0.096507674917
0	11964	108.166057345317	0.01924702284
0	11969	108.185304368157	0.025374222574
0	11975	108.210678590731	0.177685263273
0	11982	108.388363854004	0.185868943099
0	11987	108.574232797103	0.064871155441
0	11993	108.639103952544	0.004374267167
0	11995	108.643478219711	3.008181e-06
0	11997	108.643481227892	0.118396147682
0	12009	108.761877375574	0.043322435368
[...]
19	13722	123.556192797436	0.96858920354599
19	13814	124.524782000982	7.5629120624738
19	14662	132.087694063456	0.5999857879932
19	14705	132.687679851449	3.48305836357
19	15116	136.170738215019	0.99127824702709
19	15276	137.162016462046	1.217887265915
19	15408	138.379903727961	0.99029646469055
19	15526	139.370200192652	4.095632218819
19	15884	143.465832411471	3.7575098844664
19	16238	147.223342295937	5.2061498306087
19	16768	152.429492126546	2.4400710652882
19	17005	154.869563191834	0.88855578951135
19	17070	155.758118981345	4.82572039146
19	17603	160.583839372805	0.14958393108426
19	17632	160.733423303889	0.12596223800494
19	17638	160.859385541894	1.0327311602869
19	17763	161.892116702181	3.015547996737
19	18131	164.907664698918	1.5395480203909
19	18312	166.447212719309	2.7187917542806
19	18615	169.16600447359	0.59041050842287
19	18631	169.756414982013	1.0754378484213
19	18730	170.831852830434	3.3374250566836
19	19082	174.169277887118	0.026455851291422
19	19083	174.195733738409	2.1829824469681
19	19347	176.378716185377	1.1437904562324
19	19490	177.522506641609	0.16837261278596
19	19516	177.690879254395	0.025379212511454
19	19522	177.716258466906	0.32289771121439
19	19571	178.03915617812	0.48054188149056
19	19611	178.519698059611	0.72399380017202
19	19676	179.243691859783	2.1255866181658
19	19938	181.369278477949	3.101202363028
19	20241	184.470480840977	1.5941352310629
19	20446	186.06461607204	3.8992277781138
19	20871	189.963843850154	1.3969452863894
19	21025	191.360789136543	0.026269531127362
19	21036	191.38705866767	0.14797680900875
19	21048	191.535035476679	1.0007266777388
19	21147	192.535762154418	21.074687885229
19	23320	213.610450039647	1.0179756643364
19	23450	214.628425703983	1.6089272839227
19	23605	216.237352987906	0.99031051295522
19	23707	217.227663500861	3.6161985242124
19	24102	220.843862025073	0.26331649606378
19	24142	221.107178521137	2.3697682868465
19	24447	223.476946807983	0.61622997767167
19	24485	224.093176785655	0.40475861525227
19	24504	224.497935400907	5.7255384210391
19	25175	230.223473821946	2.1787735460331
19	25345	232.402247367979	0.74638719955304
19	25413	233.148634567532	6.436227816465
19	26130	239.584862383997	5.0704455676396
19	26632	244.655307951637	4.898362731373
19	27081	249.55367068301	4.869462505473
19	27581	254.423133188483	2.7738346461509
19	27874	257.196967834634	0.61800599478757
19	27934	257.814973829422	4.4201695999616
19	28453	262.235143429384	0.76153609597074
19	28525	262.996679525355	4.0744592913819
19	28911	267.071138816737	4.7885293572355
19	29312	271.859668173973	1.4899274406306
19	29508	273.349595614604	1.2429553066438
19	29642	274.592550921248	1.0206048246521
19	29760	275.6131557459	2.5158002447576
19	30035	278.128955990658	0.70333784402626
19	30121	278.832293834684	7.0347258048163
19	30880	285.8670196395	0.76082934539908
19	30968	286.627848984899	3.3941032354726
19	31290	290.021952220372	0.96483028020697
19	31386	290.986782500579	1.0945924263411
19	31486	292.08137492692	2.614912101945
19	31754	294.696287028865	0.53749320311881
19	31843	295.233780231984	0.34762281881541
19	31893	295.581403050799	2.7805019943666
19	32219	298.361905045166	1.318216568604
19	32354	299.68012161377	0.19880535085415
19	32381	299.878926964624	0.020719574883265
19	32387	299.899646539507	2.229398467834
19	32657	302.129045007341	1.3469078085108
19	32764	303.475952815852	0.77872547319664
19	32863	304.254678289049	4.728045755732
19	33321	308.982724044781	0.44026979175665
19	33370	309.422993836538	0.36163817289333
19	33411	309.784632009431	6.2494070966893
19	34124	316.03403910612	2.6631192456661
19	34429	318.697158351786	0.68050608684076
19	34505	319.377664438627	0.2843084792214
19	34552	319.661972917848	0.60032420738431
19	34615	320.262297125232	0.35211266028704
19	34648	320.614409785519	0.70590231139721
19	34740	321.320312096916	0.2866206817202
19	34760	321.606932778636	5.3492200164848
19	35328	326.956152795121	2.7381305775915
19	35642	329.694283372712	0.85498592823961
19	35740	330.549269300952	1.542716731925
19	35918	332.091986032877	1.8459782059878
19	36106	333.937964238865	1.3082467590856
19	36199	335.246210997951	1.4869826721695
19	36360	336.733193670121	1.811635627081
19	36577	338.544829297202	4.254868315381
19	37064	342.799697612583	1.6513576493434
19	37206	344.451055261926	0.52669799353628
19	37250	344.977753255462	2.8052373825765
19	37554	347.782990638038	3.4042628222515
19	37963	351.18725346029	0.013785697920789
19	37966	351.201039158211	1.5944391021161
19	38164	352.795478260327	0.16774841678014
19	38229	352.963226677107	8.8878870148793
19	39185	361.851113691986	5.0606496014172
19	39714	366.911763293403	5.9617559041657
19	40333	372.873519197569	3.934154388455
19	40785	376.807673586024	2.1474189171098
19	41005	378.955092503134	0.27751386447786
19	41026	379.232606367612	0.19835439570426
19	41037	379.430960763316	0.17581793776732
19	41055	379.606778701083	1.4193480073811
19	41210	381.026126708464	1.4449026905704
19	41373	382.471029399034	4.0394569070743
19	41858	386.510486306108	0.82990446387755
19	41960	387.340390769986	6.7373653357556
19	42672	394.077756105742	0.26976238765337
19	42711	394.347518493395	1.7170595857955
19	42930	396.06457807919	1.7608205109292
19	43127	397.825398590119	0.10433304132584
19	43146	397.929731631445	0.42386417159999
19	43185	398.353595803045	0.75097035330711
19	43238	399.104566156352	0.60699136257908
19	43296	399.711557518931	2.5231437600332
20	1766	16.082075318505	1.0562895283881
20	1929	17.138364846893	1.2398852695812
20	2076	18.378250116474	2.111738390372
20	2319	20.489988506846	1.1363527898506
20	2421	21.626341296697	4.1086530492023
20	2838	25.734994345899	0.19757307098858
20	2850	25.932567416888	1.745072500461
20	3087	27.677639917349	6.455440156864
20	3803	34.133080074213	2.486151084271
20	4071	36.619231158484	3.0467426431901
20	4382	39.665973801674	0.089361060413926
20	4399	39.755334862088	0.54978155090161
20	4455	40.30511641299	2.2818889782455
20	4747	42.587005391236	3.3250455868613
20	5082	45.912050978097	0.38595059316061
20	5122	46.298001571258	0.62648588894817
20	5172	46.924487460206	1.3333112832611
20	5349	48.257798743467	2.651465697178
20	5596	50.909264440645	0.15551522578087
20	5620	51.064779666426	1.3132210580574
20	5786	52.378000724483	0.10618327766443
20	5798	52.484184002147	0.75343940279001
20	5873	53.237623404937	0.41433842945616
20	5942	53.651961834393	6.4587730836573
20	6688	60.11073491805	2.2944938677733
20	6909	62.405228785823	0.43959795909829
20	6950	62.844826744921	3.8055660268708
20	7301	66.650392771792	0.064339187015157
20	7310	66.714731958807	1.7803795403745
20	7539	68.495111499181	4.8478218038194
20	8056	73.342933303	14.222878639977
20	9708	87.565811942977	2.3247578666624
20	9880	89.890569809639	2.6912988799193
20	10106	92.581868689558	0.028487552552794
20	10107	92.610356242111	1.4354844754266
20	10278	94.045840717538	4.7548691079452
20	10793	98.800709825483	0.050084995288294
20	10794	98.850794820771	3.3695529903404
20	11242	102.220347811111	1.627778402038
20	11507	103.848126213149	2.0368712458806
20	11740	105.88499745903	6.6878828366513
20	12445	112.572880295681	0.40353930325897
20	12490	112.97641959894	0.061336130416777
20	12504	113.037755729357	2.4791538972844
20	12815	115.516909626641	1.3504197888142
20	12965	116.867329415455	0.12702399069194
20	12971	116.994353406147	0.29154240149351
20	13028	117.285895807641	0.361841869058
20	13051	117.647737676699	4.8378758563427
20	13580	122.485613533042	1.594301031057
20	13773	124.079914564099	1.2457609110205
20	13888	125.325675475119	0.073734477454878
20	13895	125.399409952574	0.19271825559826
20	13948	125.592128208172	0.19633421950115
20	13962	125.788462427673	1.8385643260466
20	14199	127.62702675372	3.0185221745654
20	14543	130.645548928285	4.6513717668538
20	15013	135.296920695139	4.4286477108063
20	15559	139.725568405945	6.4606595344345
20	16119	146.186227940379	5.4352175959596
20	16661	151.621445536339	0.66750109866372
20	16741	152.288946635003	1.4303712364752
20	16861	153.719317871478	1.2883332409443
20	17016	155.007651112422	2.6424291555405
20	17234	157.650080267963	2.8074566630195
20	17574	160.457536930983	1.3583451433347
20	17757	161.815882074318	1.0045220482693
20	17890	162.820404122587	0.18699632736355
20	17923	163.007400449951	0.3748998276329
20	17965	163.382300277584	4.0293640846912
20	18435	167.411664362275	2.2019170177787
20	18625	169.613581380054	1.3623226246959
20	18747	170.97590400475	0.14772056497785
20	18765	171.123624569728	1.7279306475733
20	18942	172.851555217301	1.2767217404432
20	19081	174.128276957744	0.92483775493444
20	19176	175.053114712678	3.3174853763455
20	19598	178.370600089024	2.2266244336687
20	19827	180.597224522693	0.12759099505065
20	19852	180.724815517744	1.4505142532665
20	20003	182.175329771011	0.36283719392246
20	20022	182.538166964933	0.42509589282821
20	20088	182.963262857761	1.4464043542547
20	20239	184.409667212016	1.7513528117034
20	20453	186.161020023719	1.5455447866536
20	20627	187.706564810373	0.25521269357204
20	20656	187.961777503945	2.2400615814403
20	20896	190.201839085385	2.133198864339
20	21138	192.335037949724	3.2968347365831
20	21497	195.631872686307	0.67955187376665
20	21564	196.311424560074	0.71804187110001
20	21645	197.029466431174	0.48849774906569
20	21667	197.51796418024	5.8992044310882
20	22264	203.417168611328	1.2640951031176
20	22378	204.681263714446	4.1001014644814
20	22838	208.781365178927	0.021653087957141
20	22842	208.803018266884	1.1845814287157
20	22955	209.9875996956	2.8299639611421
20	23250	212.817563656742	3.3846321555695
20	23587	216.202195812311	1.1849680197456
20	23730	217.387163832057	2.7148204619713
20	24036	220.101984294028	0.014236756164427
20	24037	220.116221050192	2.9433741794942
20	24417	223.059595229686	2.8930522199621
20	24624	225.952647449648	0.18329410254281
20	24641	226.135941552191	5.8577272085874
20	25318	231.993668760778	5.2026076052041
20	25824	237.196276365982	1.6949488650775
20	26055	238.89122523106	0.81515753629951
20	26139	239.70638276736	0.59543971827063
20	26200	240.301822485631	4.6108142719567
20	26660	244.912636757588	0.31162250566441
20	26683	245.224259263252	5.8062834337702
20	27219	251.030542697022	0.41874402386289
20	27277	251.449286720885	3.8457254382573
20	27661	255.295012159142	1.5068746046921
20	27840	256.801886763834	4.38458389589
20	28355	261.186470659724	0.63861654940309
20	28429	261.825087209127	2.4074311343176
20	28672	264.232518343445	1.7731475374577
20	28776	266.005665880903	2.5719496960947
20	29034	268.577615576998	2.7600987913281
20	29264	271.337714368326	1.3147734478635
20	29424	272.65248781619	1.9545321405984
20	29643	274.607019956788	0.52292973026101
20	29704	275.129949687049	1.2530770517166
20	29822	276.383026738766	0.14790306331029
20	29847	276.530929802076	2.622173663978
20	30141	279.153103466054	3.6952530323071
20	30482	282.848356498361	1.0048732406029
20	30611	283.853229738964	2.7164868639145
20	30959	286.569716602878	3.9598122857143
20	31331	290.529528888592	1.8219026111842
20	31503	292.351431499776	1.1855144171823
20	31643	293.536945916958	3.0401775003618
20	31984	296.57712341732	6.4367869372592
20	32743	303.013910354579	0.2385767387988
20	32758	303.252487093378	4.4622412726867
20	33178	307.714728366065	0.51821010336562
20	33246	308.232938469431	1.349164378276
20	33387	309.582102847707	0.37063541222188
20	33430	309.952738259929	1.5575118005394
20	33636	311.510250060468	2.5218112672437
20	33884	314.032061327712	0.0029698619159492
20	33885	314.035031189628	1.0424547419218
20	34012	315.07748593155	0.29621398530932
20	34047	315.373699916859	2.08956469823
20	34248	317.463264615089	1.0054981508171
20	34397	318.468762765906	5.5886148121839
20	35009	324.05737757809	1.4337854415101
20	35178	325.4911630196	0.31186712211532
20	35206	325.803030141715	1.6747184568988
20	35388	327.477748598614	1.4025437381558
20	35548	328.88029233677	1.1105523291951
20	35691	329.990844665965	1.1622751448911
20	35789	331.153119810856	7.9008631643943
20	36648	339.05398297525	5.0420656507525
20	37179	344.096048626003	0.019625083022995
20	37180	344.115673709026	3.4258834858854
20	37506	347.541557194911	2.6388719605428
20	37840	350.180429155454	3.4241920182479
20	38287	353.604621173702	1.2740853981395
20	38471	354.878706571841	4.5631749755338
20	38918	359.441881547375	2.4404151738769
20	39191	361.882296721252	0.3046232202584
20	39227	362.18691994151	3.3298907560636
20	39516	365.516810697574	0.84516986604654
20	39628	366.361980563621	1.3187041221874
20	39785	367.680684685808	7.8566683781465
20	40634	375.537353063954	1.1210222520084
20	40769	376.658375315962	6.4873205714804
20	41462	383.145695887442	2.20326323917
20	41710	385.348959126612	1.1984819660709
20	41867	386.547441092683	3.755022433396
20	42290	390.302463526079	1.0639273284049
20	42408	391.366390854484	5.4414287642301
20	42996	396.807819618714	2.5586824519785
20	43258	399.366502070693	0.44126416277937
20	43322	399.807766233472	1.452316259228
21	2167	19.235829068784	1.1646113197585
21	2318	20.400440388543	5.1971361210095
21	2827	25.597576509552	7.4804966765655
21	3687	33.078073186117	2.3754679264177
21	3934	35.453541112535	2.4342936309147
21	4204	37.88783474345	1.4446825524277
21	4355	39.332517295878	0.706770243897
21	4425	40.039287539775	2.3467916923517
21	4720	42.386079232127	2.8582022447981
21	5012	45.244281476925	0.97441510630603
21	5115	46.218696583231	1.9637158334057
21	5330	48.182412416637	7.974063168295
21	6264	56.156475584932	3.4257974356433
21	6655	59.582273020575	3.2932325625733
21	6951	62.875505583148	1.3538817097248
21	7063	64.229387292873	2.2057445519487
21	7284	66.435131844822	1.8716885171617
21	7516	68.306820361984	0.91199246722973
21	7604	69.218812829214	1.0465422316546
21	7698	70.265355060869	0.6940399103962
21	7767	70.959394971265	1.3818539786803
21	7952	72.341248949945	4.3984335796628
21	8433	76.739682529608	0.36448135629002
21	8464	77.104163885898	4.1109766610075
21	8930	81.215140546906	0.69888111730525
21	9023	81.914021664211	3.584916141096
21	9465	85.498937805307	0.0073627494899301
21	9466	85.506300554797	6.2549770182675
21	10049	91.761277573065	0.66837336689986
21	10089	92.429650939965	6.2319344477889
21	10791	98.661585387754	0.29612388920558
21	10806	98.95770927696	0.54424387717533
21	10884	99.501953154135	1.5631323257065
21	11088	101.065085479842	0.7733038628455
21	11170	101.838389342687	1.906081065914
21	11484	103.744470408601	0.92292489334538
21	11610	104.667395301946	2.9120095661131
21	11917	107.579404868059	0.15114187432603
21	11929	107.730546742385	1.1406775595096
21	12024	108.871224301895	0.032519419258153
21	12025	108.903743721153	2.5094186658684
21	12335	111.413162387021	5.0922279659557
21	12926	116.505390352977	2.9525251539326
21	13266	119.45791550691	0.47598440670375
21	13306	119.933899913614	2.445544162991
21	13560	122.379444076605	0.39682509916645
21	13640	122.776269175771	1.2911420824426
21	13764	124.067411258214	0.83124328051225
21	13845	124.898654538726	0.043719114598405
21	13851	124.942373653324	1.7429714243926
21	14097	126.685345077717	0.54732838495877
21	14159	127.232673462676	1.5253516287101
21	14334	128.758025091386	0.6920402404871
21	14424	129.450065331873	0.3181195149201
21	14457	129.768184846793	1.7428875763095
21	14636	131.511072423103	5.4627701419138
21	15232	136.973842565017	1.3366798322075
21	15402	138.310522397225	4.889816984601
21	15851	143.200339381826	3.7127149670625
21	16211	146.913054348889	4.6069672470603
21	16660	151.520021595949	4.729708565975
21	17116	156.249730161924	0.90251752423588
21	17191	157.15224768616	5.6733451743028
21	17892	162.825592860463	4.9160261229784
21	18499	167.741618983441	1.5263059615546
21	18621	169.267924944996	5.8719624965404
21	19187	175.139887441536	1.011043841226
21	19325	176.150931282762	2.8129516852096
21	19651	178.963882967972	1.4182776216673
21	19797	180.382160589639	0.055965325944756
21	19799	180.438125915584	2.0732609017497
21	20020	182.511386817334	0.16609361557483
21	20054	182.677480432909	5.878062100896
21	20718	188.555542533805	0.63600887783418
21	20766	189.191551411639	1.0407494565951
21	20900	190.232300868234	0.97229807224965
21	21004	191.204598940484	0.4213332927233
21	21055	191.625932233207	0.067330700874636
21	21062	191.693262934082	4.6485431179351
21	21567	196.341806052017	1.8448663754094
21	21735	198.186672427426	0.74075006431851
21	21809	198.927422491745	6.8323572944887
21	22470	205.759779786234	6.5078906908493
21	23205	212.267670477083	0.1061719987214
21	23221	212.373842475804	3.0027808440741
21	23509	215.376623319878	4.4656275568045
21	23995	219.842250876683	1.7860782489516
21	24219	221.628329125635	8.7430255311573
21	25181	230.371354656792	1.7456008534149
21	25329	232.116955510207	1.5085926408363
21	25502	233.625548151043	4.0807873418548
21	25892	237.706335492898	6.2670439467122
21	26568	243.97337943961	1.6021048133213
21	26710	245.575484252931	2.7811784404685
21	26961	248.356662693399	3.0333530884417
21	27271	251.390015781841	0.76098249856272
21	27360	252.150998280404	1.351974481748
21	27498	253.502972762152	1.0508971885099
21	27592	254.553869950662	0.13080456649364
21	27603	254.684674517156	5.4617299980538
21	28223	260.14640451521	0.10791584231972
21	28240	260.25432035753	0.0098125739214359
21	28241	260.264132931451	0.13082577585928
21	28252	260.39495870731	0.47207032474177
21	28299	260.867029032052	0.82975058488144
21	28411	261.696779616933	0.043390553971475
21	28413	261.740170170904	0.80351454982549
21	28480	262.543684720729	0.51288750418512
21	28544	263.056572224914	0.80446024005363
21	28627	263.861032464968	3.9730388398177
21	28971	267.834071304786	1.3161166415842
21	29106	269.15018794637	2.9794403222225
21	29367	272.129628268593	0.39502809952062
21	29397	272.524656368114	1.1926226597873
21	29537	273.717279027901	0.85102096435987
21	29641	274.568299992261	1.3644151738958
21	29782	275.932715166157	4.6981293063875
21	30279	280.630844472545	1.9400699077397
21	30459	282.570914380285	0.6300324145408
21	30517	283.200946794826	1.5147870403961
21	30691	284.715733835222	0.190035808972
21	30739	284.905769644194	1.3578753873039
21	30916	286.263645031498	1.173963599796
21	31030	287.437608631294	0.0046524726014237
21	31031	287.442261103895	5.0034867785467
21	31505	292.445747882442	1.0404488801176
21	31641	293.48619676256	1.0075666730796
21	31737	294.49376343564	3.0247692443055
21	32086	297.518532679945	1.371473149031
21	32285	298.890005828976	4.1517567265961
21	32744	303.041762555572	4.7995688357232
21	33197	307.841331391295	0.94440443846884
21	33314	308.785735829764	1.0159153100927
21	33412	309.801651139857	3.0433453657919
21	33779	312.844996505649	1.9289310511687
21	33981	314.773927556818	0.95822023265638
21	34080	315.732147789474	0.15897636462978
21	34097	315.891124154104	3.2757694901808
21	34493	319.166893644285	0.14023296086594
21	34499	319.307126605151	2.6146434484625
21	34794	321.921770053614	6.4141789076438
21	35505	328.335948961258	1.0526431022644
21	35600	329.388592063522	2.6132836609863
21	35892	332.001875724508	1.6741178807929
21	36095	333.675993605301	6.0080263075392
21	36737	339.68401991284	0.57490483831035
21	36822	340.25892475115	2.5433886583567
21	37065	342.802313409507	6.6828960859972
21	37764	349.485209495504	3.5627354353468
21	38240	353.047944930851	2.7429348381869
21	38535	355.790879769038	0.33953208292434
21	38567	356.130411851962	0.10913652817909
21	38594	356.239548380141	2.2290023128552
21	38805	358.468550692996	14.137150991592
21	40311	372.605701684588	4.4297484556477
21	40812	377.035450140236	4.4110003910101
21	41259	381.446450531246	0.098804934175415
21	41280	381.545255465421	0.33271952091272
21	41316	381.877974986334	0.48836676237587
21	41362	382.36634174871	4.6033446566966
21	41935	386.969686405407	0.24918674085217
21	41945	387.218873146259	4.0678838497448
21	42402	391.286756996004	1.5684312843907
21	42552	392.855188280395	1.2076749869771
21	42671	394.062863267372	1.1509316654003
21	42820	395.213794932772	1.1027761671871
21	42954	396.316571099959	0.38700211568615
21	42983	396.703573215645	0.23875540861559
21	43007	396.942328624261	0.86228161674909
21	43126	397.80461024101	10.329546870281

