version 2
run Nonmonitoring-exponential-545-20210224-17:49:31-27075
attr configname Nonmonitoring-exponential
attr datetime 20210224-17:49:31
attr experiment Nonmonitoring-exponential
attr inifile aerocom.ini
attr iterationvars $0=50
attr iterationvarsf 50-
attr measurement $0=50
attr network Aerocom
attr processid 27075
attr repetition 45
attr replication #45
attr resultdir results
attr runnumber 545
attr seedset 45
param **.t 2s
param **.k 50ms
param **.X 0.05s
param **.m 1s
param **.tDistribution "\"exponential\""
param **.operationMode 1
param **.s "70 byte"
param **.dimPoolMax 10000
param **.dimPoolMin 8000
param **.nDL 16
param **.nA 1
param **.DLMaxCapacity 0
param **.trasmitting false

vector 0 Aerocom.aircraft[0].dataLink[5] tDistribution:vector ETV
attr "" ""
attr source computeTDistribution
vector 1 Aerocom.aircraft[0].dataLink[6] tDistribution:vector ETV
attr "" ""
attr source computeTDistribution
vector 2 Aerocom.aircraft[0].dataLink[4] tDistribution:vector ETV
attr "" ""
attr source computeTDistribution
vector 3 Aerocom.aircraft[0].packetGenerator arrivalTime:vector ETV
attr "" ""
attr source computeArrivalTime
vector 4 Aerocom.aircraft[0].linkSelector waitingTime:vector ETV
attr "" ""
attr source computeWaitingTime
vector 5 Aerocom.aircraft[0].linkSelector queueLength:vector ETV
attr "" ""
attr source computeQueueLength
vector 6 Aerocom.aircraft[0].dataLink[9] actualCapacity:vector ETV
attr "" ""
attr source computeActualCapacity
vector 7 Aerocom.aircraft[0].linkSelector serviceTime:vector ETV
attr "" ""
attr source computeServiceTime
vector 8 Aerocom.aircraft[0].linkSelector responseTime:vector ETV
attr "" ""
attr source computeResponseTime
vector 9 Aerocom.aircraft[0].dataLink[2] tDistribution:vector ETV
attr "" ""
attr source computeTDistribution
vector 10 Aerocom.aircraft[0].dataLink[1] tDistribution:vector ETV
attr "" ""
attr source computeTDistribution
vector 11 Aerocom.aircraft[0].dataLink[9] tDistribution:vector ETV
attr "" ""
attr source computeTDistribution
vector 12 Aerocom.aircraft[0].dataLink[13] tDistribution:vector ETV
attr "" ""
attr source computeTDistribution
vector 13 Aerocom.aircraft[0].dataLink[8] tDistribution:vector ETV
attr "" ""
attr source computeTDistribution
vector 14 Aerocom.aircraft[0].dataLink[14] tDistribution:vector ETV
attr "" ""
attr source computeTDistribution
vector 15 Aerocom.aircraft[0].dataLink[10] tDistribution:vector ETV
attr "" ""
attr source computeTDistribution
vector 16 Aerocom.aircraft[0].dataLink[0] tDistribution:vector ETV
attr "" ""
attr source computeTDistribution
vector 17 Aerocom.aircraft[0].dataLink[7] tDistribution:vector ETV
attr "" ""
attr source computeTDistribution
vector 18 Aerocom.aircraft[0].dataLink[15] tDistribution:vector ETV
attr "" ""
attr source computeTDistribution
vector 19 Aerocom.aircraft[0].dataLink[3] tDistribution:vector ETV
attr "" ""
attr source computeTDistribution
vector 20 Aerocom.aircraft[0].dataLink[12] tDistribution:vector ETV
attr "" ""
attr source computeTDistribution
vector 21 Aerocom.aircraft[0].dataLink[11] tDistribution:vector ETV
attr "" ""
attr source computeTDistribution
0	1000	10.00060824907	1.0019101659977
0	1115	11.002518415068	0.21087210085398
0	1121	11.213390515922	2.5966397055649
0	1387	13.810030221487	1.3894548806068
0	1528	15.199485102094	5.4459654717923
0	2068	20.645450573886	1.1452703324333
0	2173	21.790720906319	10.292940731771
0	3279	32.08366163809	1.0349395910572
0	3374	33.118601229147	2.9596600009543
0	3698	36.078261230101	2.0061610887623
0	3919	38.084422318863	0.37757945449719
0	3966	38.46200177336	3.3960952161618
0	4338	41.858096989522	0.2391298369545
0	4371	42.097226826477	2.2344630621967
0	4554	44.331689888674	2.0606232337787
0	4772	46.392313122453	0.70397923036216
0	4842	47.096292352815	1.5354756853004
0	4967	48.631768038115	3.8047495680974
0	5388	52.436517606212	3.9848528117587
0	5808	56.421370417971	1.9369795248376
0	6055	58.358349942809	1.2523147220786
0	6173	59.610664664888	3.285171088724
0	6528	62.895835753612	0.73581527345833
0	6592	63.63165102707	0.40670227990594
0	6644	64.038353306976	1.0653555846529
0	6768	65.103708891629	9.656962916696
0	7869	74.760671808325	1.5612598688949
0	8038	76.32193167722	1.7666098189266
0	8248	78.088541496147	5.6904081996971
0	8917	83.778949695844	7.2533729383364
0	9597	91.03232263418	0.98969598466083
0	9729	92.022018618841	0.6040033282977
0	9788	92.626021947139	1.0686723511221
0	9923	93.694694298261	0.37316729704785
0	9985	94.067861595309	1.4585861567435
0	10110	95.526447752052	0.43720503468179
0	10155	95.963652786734	5.2051949710008
0	10765	101.168847757735	3.0572644569581
0	11126	104.226112214693	3.0198225854323
0	11449	107.245934800125	2.6137505572606
0	11717	109.859685357386	0.2577683493634
0	11738	110.117453706749	1.8419043572914
0	11998	111.95935806404	1.10367237086
0	12132	113.0630304349	2.2897475017914
0	12371	115.352777936691	4.8095820604774
0	12883	120.162359997168	0.99760271385327
0	12952	121.159962711021	3.8648649500722
0	13425	125.024827661093	6.8140474076631
0	14138	131.838875068756	0.5732632431312
0	14215	132.412138311887	4.0125209813124
0	14679	136.424659293199	1.919961000534
0	14923	138.344620293733	2.4119300659925
0	15145	140.756550359725	1.9340514872803
0	15386	142.690601847005	1.1269516837403
0	15537	143.817553530745	5.3752627242651
0	16146	149.19281625501	3.4290419613572
0	16508	152.621858216367	0.5353419608356
0	16578	153.157200177203	4.9876328320144
0	17192	158.144833009217	2.9010042822279
0	17474	161.045837291445	0.010955134436052
0	17475	161.056792425881	5.0832780081873
0	17977	166.140070434068	6.5400483026362
0	18700	172.680118736704	1.5933317151713
0	18833	174.273450451875	1.7092234524941
0	19017	175.982673904369	0.40306670458327
0	19038	176.385740608952	1.9844070418843
0	19237	178.370147650836	0.76128198348118
0	19305	179.131429634317	0.99498032853107
0	19407	180.126409962848	3.5220261773376
0	19724	183.648436140186	16.14811677184
0	21522	199.796552912026	1.1122684444005
0	21621	200.908821356426	3.3311793454028
0	21960	204.240000701829	1.8268105213371
0	22127	206.066811223166	1.9248721210099
0	22279	207.991683344176	2.3348150443394
0	22553	210.326498388515	6.2311378727768
0	23160	216.557636261292	1.093333314919
0	23280	217.650969576211	0.90192611148392
0	23419	218.552895687695	0.16135509271199
0	23454	218.714250780407	9.2360871400135
0	24430	227.950337920421	0.84755355609861
0	24539	228.79789147652	1.1422361604601
0	24676	229.94012763698	0.94885157096209
0	24803	230.888979207942	0.085928479104693
0	24814	230.974907687047	0.55289626586079
0	24883	231.527803952908	0.9032847050892
0	24965	232.431088657997	2.1175533196462
0	25191	234.548641977643	0.66313933975387
0	25254	235.211781317397	0.65839060710886
0	25330	235.870171924506	0.23149987765263
0	25391	236.101671802159	0.56218758643145
0	25428	236.66385938859	0.91103151862786
0	25515	237.574890907218	1.0433745577395
0	25630	238.618265464958	0.21346448899236
0	25651	238.83172995395	0.053310536459633
0	25667	238.88504049041	1.4598325180685
0	25785	240.344873008479	3.0359922856963
0	26099	243.380865294175	2.8770968990176
0	26416	246.257962193193	1.3531039083945
0	26534	247.611066101587	0.33701198352393
0	26579	247.948078085111	2.0304818974801
0	26858	249.978559982591	1.6659466731367
0	26995	251.644506655728	0.18509728002847
0	27033	251.829603935756	0.32290472698319
0	27080	252.152508662739	0.60054292164141
0	27124	252.75305158438	1.5138060739507
0	27268	254.266857658331	1.1319186185151
0	27428	255.398776276846	1.0027150602302
0	27539	256.401491337076	1.4516655054375
0	27657	257.853156842514	0.16228394284931
0	27666	258.015440785363	5.6821409039414
0	28236	263.697581689304	2.1260153471191
0	28416	265.823597036423	0.46558716618341
0	28486	266.289184202606	4.0461817575662
0	28917	270.335365960172	1.4453194963776
0	29021	271.78068545655	1.786764022437
0	29210	273.567449478987	0.56539908643422
0	29262	274.132848565421	1.464864950243
0	29416	275.597713515664	0.38956388502969
0	29453	275.987277400694	1.0159850386248
0	29509	277.003262439319	1.7245166860604
0	29665	278.727779125379	4.5580037784965
0	30092	283.285782903875	0.12435985495809
0	30109	283.410142758833	1.2821369700384
0	30245	284.692279728871	2.0119672600197
0	30432	286.704246988891	1.8563924389221
0	30608	288.560639427813	3.205215581525
0	30960	291.765855009338	5.3741429431422
0	31484	297.13999795248	1.594541866886
0	31611	298.734539819366	2.061180756072
0	31826	300.795720575438	7.8275366235278
0	32831	308.623257198966	5.866472354624
0	33551	314.48972955359	5.1905766399559
0	34087	319.680306193546	0.20280902516722
0	34114	319.883115218713	1.3333334951861
0	34235	321.216448713899	3.3262917411191
0	34552	324.542740455018	4.0537675378059
0	35011	328.596507992824	4.1194147935357
0	35490	332.71592278636	1.3793857013682
0	35639	334.095308487728	0.26454910276986
0	35674	334.359857590498	0.080718484658685
0	35680	334.440576075157	0.18909220731925
0	35697	334.629668282476	2.3246826440067
0	35955	336.954350926483	0.34162580630359
0	35970	337.295976732787	1.1328844866842
0	36091	338.428861219471	0.30849079187603
0	36099	338.737352011347	2.947841284713
0	36422	341.68519329606	2.0158213635507
0	36612	343.701014659611	0.33803584468206
0	36657	344.039050504293	2.5316531851426
0	36952	346.570703689436	4.8586814920279
0	37531	351.429385181464	0.73825964244442
0	37596	352.167644823908	1.3771951338452
0	37751	353.544839957753	4.3013426334947
0	38280	357.846182591248	0.046631791165317
0	38281	357.892814382413	0.43583217671902
0	38345	358.328646559132	0.54001366807513
0	38397	358.868660227207	1.8746323563316
0	38584	360.743292583539	4.3292436826814
0	39157	365.07253626622	1.5405272978734
0	39341	366.613063564093	1.0039538530936
0	39472	367.617017417187	5.392011742459
0	40150	373.009029159646	0.97395583870245
0	40270	373.982984998348	4.4254624056542
0	40738	378.408447404002	1.2778274944387
0	40881	379.686274898441	2.8851856514657
0	41130	382.571460549907	1.4436676064952
0	41316	384.015128156402	4.7583356212906
0	41804	388.773463777693	1.4101696140012
0	41985	390.183633391694	4.6582627704678
0	42454	394.841896162162	3.563880139826
0	42885	398.405776301988	3.8773250612995
1	1001	10.002353834946	2.5320930906348
1	1252	12.534446925581	0.29985811688749
1	1305	12.834305042468	4.9877305117986
1	1778	17.822035554267	1.7760793050662
1	1981	19.598114859333	1.4484253824231
1	2095	21.046540241756	2.5551280066776
1	2357	23.601668248434	0.20975182893048
1	2374	23.811420077364	2.4635460570542
1	2631	26.274966134418	1.2530977872432
1	2785	27.528063921661	0.52911079059653
1	2852	28.057174712258	1.3288095688969
1	2995	29.385984281155	2.1659120713063
1	3250	31.551896352461	0.56026139336943
1	3280	32.11215774583	0.17229594200731
1	3304	32.284453687837	6.0730076474321
1	3950	38.357461335269	2.2932646352122
1	4204	40.650725970481	0.76469243745942
1	4302	41.41541840794	0.84854781866407
1	4381	42.263966226604	5.37354490971
1	4896	47.637511136314	0.53144818630982
1	4930	48.168959322624	3.9058719941283
1	5339	52.074831316752	0.40923349650635
1	5390	52.484064813258	2.9531227319854
1	5694	55.437187545243	3.4513430372279
1	6103	58.888530582471	7.6550245410505
1	6916	66.543555123522	5.8129848558865
1	7576	72.356539979409	1.3477785063629
1	7678	73.704318485772	1.4608159233684
1	7912	75.16513440914	3.6405462123986
1	8322	78.805680621539	7.7106856635535
1	9180	86.516366285093	0.65664239117124
1	9254	87.173008676264	1.7081601178028
1	9383	88.881168794067	4.366402968784
1	9866	93.247571762851	2.736901762626
1	10162	95.984473525477	0.23326740513274
1	10189	96.21774093061	4.1336435561829
1	10689	100.351384486793	0.39087317554873
1	10732	100.742257662342	1.100194337049
1	10850	101.842451999391	1.1273893195137
1	11011	102.969841318905	4.8636060905572
1	11523	107.833447409462	0.72549057384849
1	11581	108.55893798331	2.1949008972221
1	11840	110.753838880532	1.4934737354691
1	12019	112.247312616001	1.6151103641401
1	12242	113.862422980141	1.5312233500667
1	12374	115.393646330208	0.28329907284266
1	12427	115.676945403051	0.24883415128137
1	12447	115.925779554332	2.6494110098086
1	12720	118.575190564141	2.4575588286566
1	12947	121.032749392798	1.7287623450966
1	13163	122.761511737895	1.2064609353103
1	13299	123.967972673205	0.1479061529576
1	13328	124.115878826163	0.64648662249275
1	13395	124.762365448656	5.2805919350718
1	13961	130.042957383728	1.7934424860605
1	14137	131.836399869789	1.1582569571081
1	14255	132.994656826897	0.24342199635753
1	14274	133.238078823255	1.3968214333068
1	14441	134.634900256562	1.5390824260885
1	14647	136.173982682651	1.817266708786
1	14885	137.991249391437	0.45447565234886
1	14924	138.445725043786	0.77847486401221
1	15000	139.224199907798	0.95942973410627
1	15073	140.183629641904	3.0038953366038
1	15465	143.187524978508	0.28760215781702
1	15503	143.475127136325	4.3911178628279
1	15996	147.866244999153	1.0359174186754
1	16116	148.902162417828	0.51106557617903
1	16173	149.413227994007	2.6757794686416
1	16449	152.089007462649	0.20290397297245
1	16461	152.291911435621	5.3477784148368
1	17099	157.639689850458	0.037734025312285
1	17108	157.67742387577	0.6919507563193
1	17215	158.369374632089	7.4724462336255
1	17961	165.841820865715	11.216420969475
1	19108	177.05824183519	5.3608130640767
1	19578	182.419054899267	1.2362583111218
1	19725	183.655313210389	0.30151869401551
1	19768	183.956831904405	3.4095260161255
1	20143	187.366357920531	0.57014054927102
1	20209	187.936498469802	0.14299023258558
1	20211	188.079488702388	2.2859858907881
1	20494	190.365474593176	0.853718351207
1	20561	191.219192944383	0.92547873350287
1	20665	192.144671677886	0.27233125717535
1	20696	192.417002935061	4.3996747135716
1	21175	196.816677648633	1.8303009396149
1	21371	198.646978588248	1.460950668459
1	21548	200.107929256707	0.3246989802985
1	21581	200.432628237006	2.1345121098994
1	21790	202.567140346905	3.6140516348788
1	22128	206.181191981784	2.2312955163298
1	22343	208.412487498114	0.93168471236182
1	22428	209.344172210476	0.20180011883984
1	22444	209.545972329316	0.18760738903351
1	22455	209.73357971835	1.7049168217886
1	22659	211.438496540139	0.10990422983953
1	22665	211.548400769979	3.6227261911769
1	23038	215.171126961156	1.5997562067084
1	23178	216.770883167864	0.41538242254779
1	23231	217.186265590412	2.852215560666
1	23602	220.038481151078	0.29175868424648
1	23642	220.330239835324	0.14259242820445
1	23669	220.472832263528	0.98175491125869
1	23776	221.454587174787	0.40593606079957
1	23819	221.860523235587	1.8456701953907
1	24018	223.706193430978	1.08153748203
1	24116	224.787730913008	4.9506569219639
1	24659	229.738387834972	0.53693157220775
1	24725	230.27531940718	3.0542467747663
1	25060	233.329566181946	0.91940885478865
1	25137	234.248975036735	1.5128580537157
1	25313	235.761833090451	0.87093471481473
1	25427	236.632767805266	1.3485575839197
1	25552	237.981325389186	0.49709444387025
1	25624	238.478419833056	0.49375399251403
1	25680	238.97217382557	1.7248464522583
1	25821	240.697020277828	0.6517503338362
1	25881	241.348770611664	0.77499242542409
1	25962	242.123763037088	0.58213464250504
1	26043	242.705897679593	1.6589200370473
1	26212	244.36481771664	1.5646368988211
1	26385	245.929454615461	0.64807835161668
1	26463	246.577532967078	0.41836840333417
1	26497	246.995901370412	4.9448723072329
1	27046	251.940773677645	0.92179379260177
1	27131	252.862567470247	0.7024872122979
1	27202	253.565054682545	5.7249270029238
1	27802	259.289981685469	0.095503938146234
1	27808	259.385485623615	2.1604150787764
1	28001	261.545900702391	3.6601941842943
1	28365	265.206094886685	0.87140929831174
1	28443	266.077504184997	0.15414851428517
1	28470	266.231652699282	6.2268548615922
1	29114	272.458507560874	3.6207786652611
1	29460	276.079286226135	2.6785640004403
1	29666	278.757850226575	0.74654945908277
1	29746	279.504399685658	0.34523122550167
1	29768	279.84963091116	0.44401959579901
1	29824	280.293650506959	3.638043620689
1	30135	283.931694127648	3.4477561510732
1	30494	287.379450278721	2.8575875630365
1	30809	290.237037841757	2.5577656281469
1	31067	292.794803469904	1.6216919232311
1	31213	294.416495393135	0.98954863542252
1	31296	295.406044028558	0.75224189980141
1	31368	296.158285928359	1.064689416997
1	31490	297.222975345356	3.4881853803054
1	31817	300.711160725661	3.6242351006917
1	32275	304.335395826353	4.3117783750611
1	32832	308.647174201414	1.3369577662882
1	32989	309.984131967702	1.2026901338899
1	33127	311.186822101592	2.8650996046955
1	33481	314.051921706287	0.97594264041593
1	33608	315.027864346703	1.6730757043896
1	33806	316.700940051093	1.6329232985288
1	33936	318.333863349622	3.0296319152465
1	34254	321.363495264868	0.85782881642657
1	34309	322.221324081295	1.8653384143743
1	34516	324.086662495669	2.0161287551461
1	34712	326.102791250815	0.82444093204447
1	34809	326.927232182859	1.8444749577411
1	35039	328.7717071406	0.96288745630755
1	35121	329.734594596908	0.83371187286119
1	35211	330.568306469769	0.49262303161609
1	35277	331.060929501385	0.44871565773
1	35329	331.509645159115	0.18548129537989
1	35331	331.695126454495	0.75867571134303
1	35455	332.453802165838	2.4771719754572
1	35738	334.930974141295	2.4142205060302
1	35972	337.345194647325	2.061244048781
1	36198	339.406438696106	3.2461037389189
1	36536	342.652542435025	1.4275731878279
1	36672	344.080115622853	0.48071537952536
1	36716	344.560831002378	0.24789735689289
1	36748	344.808728359271	1.0711862206696
1	36868	345.879914579941	1.3629881778896
1	37048	347.242902757831	2.6189429202311
1	37349	349.861845678062	0.020492236653366
1	37351	349.882337914715	0.52457387697313
1	37428	350.406911791688	2.9291799926272
1	37719	353.336091784315	2.0311122957009
1	37956	355.367204080016	0.30673219967204
1	38002	355.673936279688	3.350594585201
1	38411	359.024530864889	0.42621325594468
1	38442	359.450744120834	5.2319664484597
1	39114	364.682710569294	0.22866039497623
1	39136	364.91137096427	0.97380593302734
1	39256	365.885176897297	3.6193594963761
1	39762	369.504536393673	1.449420632139
1	39931	370.953957025812	4.3826570600924
1	40385	375.336614085904	2.3757963277376
1	40653	377.712410413642	0.56700939605947
1	40721	378.279419809701	2.3511001231716
1	40945	380.630519932873	1.3689595868933
1	41088	381.999479519766	3.2333571511155
1	41478	385.232836670881	0.58432212440769
1	41543	385.817158795289	2.1666592162472
1	41733	387.983818011536	1.7197566029627
1	41921	389.703574614499	0.072634392985725
1	41938	389.776209007485	1.4041419960931
1	42064	391.180351003578	1.8710350947427
1	42227	393.051386098321	1.5947858274986
1	42434	394.64617192582	0.16484031676733
1	42448	394.811012242587	1.5271906739337
1	42625	396.338202916521	3.2523211603719
1	43035	399.590524076893	0.78960712172469
2	1002	10.005784203854	0.14522997056842
2	1023	10.151014174422	1.2031078609634
2	1145	11.354122035385	0.34221310142294
2	1197	11.696335136808	4.9656045859987
2	1661	16.661939722807	1.5474880411527
2	1827	18.20942776396	1.95995120425
2	2033	20.16937896821	1.8131282160907
2	2193	21.982507184301	0.94130541288922
2	2307	22.92381259719	0.2728222782372
2	2334	23.196634875427	2.8427540242369
2	2599	26.039388899664	0.24672247108204
2	2634	26.286111370746	3.0721600554678
2	2992	29.358271426214	6.2404456752337
2	3631	35.598717101448	1.354633135817
2	3795	36.953350237265	4.8258421363763
2	4332	41.779192373641	4.8662992809908
2	4794	46.645491654632	2.2042205536937
2	4975	48.849712208326	4.3076294715952
2	5447	53.157341679921	0.10237743848397
2	5449	53.259719118405	0.25203898491324
2	5463	53.511758103318	2.4051328416531
2	5734	55.916890944971	0.44654539007332
2	5807	56.363436335044	0.07326718557738
2	5809	56.436703520621	1.0134791351515
2	5918	57.450182655772	5.3128406829422
2	6514	62.763023338714	7.6116638669134
2	7352	70.374687205627	0.30327701467514
2	7397	70.677964220302	0.78334689419892
2	7483	71.461311114501	0.80107780139675
2	7567	72.262388915898	0.74674982812249
2	7618	73.00913874402	0.57997954594215
2	7658	73.589118289962	0.0091106621235206
2	7663	73.598228952086	0.54511032494395
2	7748	74.14333927703	0.051389997977782
2	7752	74.194729275008	3.8095670288819
2	8247	78.00429630389	1.3548508417041
2	8386	79.359147145594	0.25120674619086
2	8420	79.610353891785	2.6562534937428
2	8740	82.266607385528	0.15864647724914
2	8751	82.425253862777	4.3134567560437
2	9208	86.738710618821	1.6863224901757
2	9339	88.425033108997	3.257327060997
2	9683	91.682360169994	0.44654816169989
2	9735	92.128908331694	1.6785261721528
2	9951	93.807434503847	3.1811784620014
2	10287	96.988612965848	1.8384611641294
2	10535	98.827074129977	3.4597401742341
2	10918	102.286814304211	1.4912757758687
2	11084	103.77809008008	1.532685398837
2	11281	105.310775478917	4.690358043301
2	11737	110.001133522218	2.8232419166888
2	12107	112.824375438907	1.8772931463166
2	12299	114.701668585224	1.8776070436358
2	12478	116.57927562886	0.042317241945524
2	12479	116.621592870806	0.96457136036578
2	12608	117.586164231172	0.00010623925339245
2	12609	117.586270470425	0.75582509790029
2	12696	118.342095568325	0.75789748575661
2	12783	119.099993054082	1.2959261063828
2	12900	120.395919160465	0.94912361686988
2	12966	121.345042777335	4.7156471665203
2	13551	126.060689943855	0.27957356972715
2	13583	126.340263513582	1.1159807088823
2	13657	127.456244222464	2.4605970492237
2	13949	129.916841271688	0.56023392842363
2	13986	130.477075200112	0.28934875970568
2	14027	130.766423959818	3.3392977330827
2	14383	134.105721692901	3.9775796619505
2	14916	138.083301354851	0.88380003366135
2	14969	138.967101388512	1.4024593967414
2	15101	140.369560785253	0.32997891890511
2	15144	140.699539704158	1.8788241802843
2	15371	142.578363884442	1.3073849434895
2	15558	143.885748827932	2.8000523635296
2	15874	146.685801191462	4.028005319517
2	16315	150.713806510979	0.010207234076418
2	16316	150.724013745055	3.2735200654079
2	16689	153.997533810463	1.3445413829841
2	16892	155.342075193447	2.4653906097913
2	17126	157.807465803238	0.80074664895967
2	17236	158.608212452198	0.17401241514008
2	17237	158.782224867338	0.042829378915701
2	17238	158.825054246254	0.068933730927529
2	17245	158.893987977182	0.70388047151255
2	17327	159.597868448695	1.926882299766
2	17509	161.524750748461	1.8447746451186
2	17719	163.36952539358	2.0417881308048
2	17913	165.411313524385	0.23560612492918
2	17948	165.646919649314	1.3218964570734
2	18062	166.968816106387	1.7429367090543
2	18281	168.711752815441	7.0866312153323
2	18994	175.798384030773	0.061442482728126
2	19003	175.859826513501	0.92520233891268
2	19085	176.785028852414	0.1839661241731
2	19107	176.968994976587	1.2307256514802
2	19218	178.199720628067	1.239590084908
2	19348	179.439310712975	2.229733739378
2	19515	181.669044452353	3.9658051708126
2	19941	185.634849623166	1.7486404313893
2	20146	187.383490054555	3.938538999012
2	20571	191.322029053567	0.33310372464519
2	20597	191.655132778212	2.1145637355951
2	20869	193.769696513807	1.9871301320997
2	21077	195.756826645907	3.2292749254345
2	21415	198.986101571341	2.1830998007944
2	21658	201.169201372135	3.3487996409466
2	21982	204.518001013082	1.7928516301156
2	22140	206.310852643198	1.1317957502056
2	22222	207.442648393404	1.9334098421191
2	22430	209.376058235523	0.16436086978735
2	22443	209.54041910531	0.83122390492239
2	22566	210.371643010232	3.9309707151511
2	22944	214.302613725383	1.377961692585
2	23069	215.680575417968	0.38714662261116
2	23101	216.067722040579	2.7476886587142
2	23464	218.815410699293	0.85614340081546
2	23559	219.671554100108	2.5862191444631
2	23861	222.257773244571	3.1704670973333
2	24225	225.428240341904	0.47262172163395
2	24249	225.900862063538	3.5808733282545
2	24624	229.481735391792	0.88653093720869
2	24738	230.368266329001	1.1154888806929
2	24879	231.483755209694	1.4894025238367
2	25016	232.973157733531	1.2106742051262
2	25136	234.183831938657	2.9135027157258
2	25480	237.097334654383	2.2775741671515
2	25703	239.374908821535	4.8725371185474
2	26183	244.247445940082	5.9756373983689
2	26878	250.223083338451	1.1966341340931
2	26977	251.419717472544	1.4882857523724
2	27137	252.908003224916	2.2196868960101
2	27396	255.127690120926	0.39911190144378
2	27447	255.52680202237	3.5338775289311
2	27775	259.060679551301	1.5121788567842
2	27912	260.572858408085	9.4281699055714
2	28877	270.001028313656	0.94270187516666
2	28948	270.943730188823	1.5406209743469
2	29120	272.48435116317	5.121177650699
2	29553	277.605528813869	0.97417291687609
2	29654	278.579701730745	1.0975748820637
2	29758	279.677276612809	2.6112663698358
2	30014	282.288542982645	2.5040313186746
2	30261	284.79257430132	0.58612998190337
2	30299	285.378704283223	0.1562687345679
2	30305	285.534973017791	1.0331972565543
2	30431	286.568170274345	0.19019689616497
2	30438	286.75836717051	4.5414189563575
2	30917	291.299786126868	2.1204616111943
2	31102	293.420247738062	1.5583392868987
2	31272	294.978587024961	0.86301895623448
2	31332	295.841605981195	3.0168240438624
2	31632	298.858430025057	0.3621435539075
2	31655	299.220573578965	0.79405265458848
2	31750	300.014626233553	3.5728279135179
2	32144	303.587454147071	1.0672270378623
2	32313	304.654681184933	2.3649392826487
2	32658	307.019620467582	3.3925614793233
2	33032	310.412181946905	1.779553004356
2	33264	312.191734951261	0.46680550697894
2	33326	312.65854045824	1.7958153238229
2	33550	314.454355782063	3.3045996408081
2	33897	317.758955422871	0.084016035111012
2	33898	317.842971457982	1.1755795937966
2	34013	319.018551051779	0.70042679145287
2	34088	319.718977843232	0.76471929856108
2	34185	320.483697141793	0.05401943078907
2	34189	320.537716572582	3.268494980819
2	34481	323.806211553401	2.2950666971645
2	34711	326.101278250566	0.69633556470154
2	34787	326.797613815268	3.780578854632
2	35215	330.5781926699	2.3390519921803
2	35525	332.91724466208	4.4611296748373
2	35973	337.378374336917	2.6336927182899
2	36260	340.012067055207	1.5199830813683
2	36411	341.532050136575	0.30774933315428
2	36433	341.839799469729	6.7015195151136
2	37232	348.541318984843	0.074580096484861
2	37233	348.615899081328	0.76241985298482
2	37284	349.378318934313	7.0811306499483
2	38091	356.459449584261	0.27191650108658
2	38112	356.731366085348	2.0038967531746
2	38388	358.735262838523	9.3246606519075
2	39537	368.05992349043	0.10910081019199
2	39549	368.169024300622	0.78030001420067
2	39689	368.949324314823	1.9507294902376
2	39919	370.900053805061	1.813509812408
2	40123	372.713563617469	0.28488943332381
2	40149	372.998453050793	1.574760133511
2	40309	374.573213184304	0.23753684976712
2	40324	374.810750034071	2.269990057728
2	40580	377.080740091799	1.7436045198072
2	40795	378.824344611606	1.7295515964527
2	40943	380.553896208059	3.1255468897766
2	41260	383.679443097836	0.50678820182646
2	41338	384.186231299662	1.0373299480433
2	41477	385.223561247705	5.8147472816427
2	42053	391.038308529348	13.397890682395
3	1003	10.008953807475	0.041903994209
3	1008	10.050857801684	0.068990277113
3	1013	10.119848078797	0.017655710504
3	1018	10.137503789301	0.051410825684
3	1025	10.188914614985	0.117308859737
3	1031	10.306223474722	0.02056007695
3	1036	10.326783551672	0.018124823176
3	1041	10.344908374848	0.05126339945
3	1047	10.396171774298	0.06579037804
3	1052	10.461962152338	0.002901018493
3	1054	10.464863170831	0.085545949249
3	1062	10.55040912008	0.012094885281
3	1067	10.562504005361	0.131131721636
3	1073	10.693635726997	0.056731003478
3	1079	10.750366730475	0.071827580528
3	1085	10.822194311003	0.004435022781
3	1087	10.826629333784	0.017420367201
3	1095	10.844049700985	0.096410538909
3	1100	10.940460239894	0.001404441912
3	1102	10.941864681806	0.028611902695
3	1110	10.970476584501	0.195042563588
3	1116	11.165519148089	0.089714290425
3	1122	11.255233438514	0.018512239572
3	1128	11.273745678086	0.0073927791
3	1133	11.281138457186	0.012109581185
3	1138	11.293248038371	0.1214401719
3	1146	11.414688210271	0.029468628737
3	1151	11.444156839008	0.003298854911
3	1153	11.447455693919	0.084028308938
3	1162	11.531484002857	0.046529299871
3	1167	11.578013302728	0.000116217824
3	1169	11.578129520552	0.035791212191
3	1177	11.613920732743	0.001284583586
3	1179	11.615205316329	0.016438519512
3	1187	11.631643835841	0.014559497348
3	1192	11.646203333189	0.058314196578
3	1198	11.704517529767	0.027972256402
3	1203	11.732489786169	0.198066641545
3	1210	11.930556427714	0.182167286139
3	1215	12.112723713853	0.09652247646
3	1221	12.209246190313	0.079848119817
3	1226	12.28909431013	0.061159885418
3	1231	12.350254195548	0.04825412311
3	1236	12.398508318658	0.015445175889
3	1241	12.413953494547	0.112509944578
3	1247	12.526463439125	0.010740345992
3	1253	12.537203785117	0.001585118163
3	1255	12.53878890328	0.096547450977
3	1264	12.635336354257	0.014169346838
3	1270	12.649505701095	0.034727100468
3	1275	12.684232801563	0.027950076549
3	1280	12.712182878112	0.036695417716
3	1285	12.748878295828	0.004115088386
3	1287	12.752993384214	0.062819917858
3	1295	12.815813302072	0.000948628958
3	1297	12.81676193103	0.088144041813
3	1307	12.904905972843	0.001911822969
3	1309	12.906817795812	0.022267090001
3	1317	12.929084885813	0.001755194017
3	1320	12.93084007983	0.010531213921
3	1325	12.941371293751	0.025067829629
3	1333	12.96643912338	0.006646128749
3	1335	12.973085252129	0.064020564206
3	1343	13.037105816335	0.214741730445
3	1349	13.25184754678	0.212317586083
3	1354	13.464165132863	0.005849784331
3	1356	13.470014917194	0.029746480645
3	1365	13.499761397839	0.020416833769
3	1370	13.520178231608	0.099418078365
3	1375	13.619596309973	0.122688177354
3	1380	13.742284487327	0.104866170305
3	1388	13.847150657632	0.038234438162
3	1393	13.885385095794	0.024742053101
3	1398	13.910127148895	0.032377671942
3	1403	13.942504820837	0.048628245188
3	1409	13.991133066025	0.008613720034
3	1414	13.999746786059	0.008161001602
3	1419	14.007907787661	0.040951921681
3	1424	14.048859709342	0.047764107493
3	1429	14.096623816835	0.054245884576
3	1434	14.150869701411	0.00755783482
3	1436	14.158427536231	0.132730523862
3	1446	14.291158060093	0.059241216258
3	1451	14.350399276351	0.074484246383
3	1456	14.424883522734	0.103338793895
3	1463	14.528222316629	0.12242436558
3	1468	14.650646682209	0.029737574444
3	1474	14.680384256653	0.007422582157
3	1476	14.68780683881	0.110841081771
3	1485	14.798647920581	0.016592101489
3	1491	14.81524002207	0.004788057838
3	1493	14.820028079908	0.01927398739
3	1501	14.839302067298	0.059881182946
3	1507	14.899183250244	0.034995752242
3	1512	14.934179002486	0.012902114202
3	1517	14.947081116688	0.023029489383
3	1522	14.970110606071	0.259886527429
3	1529	15.2299971335	0.112546415319
3	1534	15.342543548819	0.009097311296
3	1539	15.351640860115	0.027987909734
3	1545	15.379628769849	0.081551595937
3	1550	15.461180365786	0.048560563921
3	1555	15.509740929707	0.006576786315
3	1557	15.516317716022	0.089619359824
3	1565	15.605937075846	0.007137381607
3	1567	15.613074457453	0.005157498473
3	1572	15.618231955926	0.056896617425
3	1580	15.675128573351	0.022245237281
3	1585	15.697373810632	0.003269841783
3	1587	15.700643652415	0.278916568447
3	1596	15.979560220862	0.013595626519
3	1601	15.993155847381	0.027272229456
3	1606	16.020428076837	0.057685942411
3	1611	16.078114019248	0.056422214737
3	1616	16.134536233985	0.005963374962
3	1618	16.140499608947	0.106868211688
3	1627	16.247367820635	0.016101193213
3	1632	16.263469013848	0.092470717426
3	1637	16.355939731274	0.051027778975
3	1643	16.406967510249	0.077845814686
3	1650	16.484813324935	0.130020046863
3	1656	16.614833371798	0.073970941036
3	1662	16.688804312834	0.015420011628
3	1667	16.704224324462	0.06258506858
3	1672	16.766809393042	0.091150071984
3	1677	16.857959465026	0.080781215547
3	1682	16.938740680573	0.164757984067
3	1688	17.10349866464	0.042493761807
3	1693	17.145992426447	0.079137805408
3	1698	17.225130231855	0.017420896854
3	1703	17.242551128709	0.039907578228
3	1708	17.282458706937	0.097139004381
3	1714	17.379597711318	0.055634018844
3	1719	17.435231730162	0.010968242775
3	1724	17.446199972937	0.010731699622
3	1729	17.456931672559	0.005199590709
3	1731	17.462131263268	0.004398539549
3	1736	17.466529802817	0.045543468665
3	1745	17.512073271482	0.035140349624
3	1750	17.547213621106	0.063568944075
3	1757	17.610782565181	0.041311397061
3	1762	17.652093962242	0.089615470916
3	1767	17.741709433158	0.001776215467
3	1769	17.743485648625	0.103844522723
3	1779	17.847330171348	0.00549039298
3	1781	17.852820564328	0.021095090459
3	1789	17.873915654787	0.099817620793
3	1794	17.97373327558	0.00845656226
3	1796	17.98218983784	0.043442443507
3	1804	18.025632281347	0.110096116411
3	1811	18.135728397758	0.028319071014
3	1816	18.164047468772	0.006009229843
3	1819	18.170056698615	0.07576396885
3	1828	18.245820667465	0.1679124671
3	1833	18.413733134565	0.019140291006
3	1839	18.432873425571	0.018595323302
3	1844	18.451468748873	0.007301981861
3	1846	18.458770730734	0.151759092501
3	1855	18.610529823235	0.001061867165
3	1857	18.6115916904	0.025125137829
3	1866	18.636716828229	0.004581484369
3	1868	18.641298312598	0.087812055359
3	1876	18.729110367957	0.031007644506
3	1881	18.760118012463	0.033637931223
3	1886	18.793755943686	0.017416103233
3	1891	18.811172046919	0.01298619029
3	1896	18.824158237209	0.041372775853
3	1903	18.865531013062	0.071292585523
3	1908	18.936823598585	0.015161507143
3	1913	18.951985105728	0.036201510678
3	1918	18.988186616406	0.017453912025
3	1923	19.005640528431	0.094516211057
3	1929	19.100156739488	0.071101712006
3	1936	19.171258451494	0.011101270424
3	1941	19.182359721918	0.084964179001
3	1946	19.267323900919	0.033819013974
3	1953	19.301142914893	0.012229102773
3	1958	19.313372017666	0.020339524119
3	1964	19.333711541785	0.115385270359
3	1969	19.449096812144	0.122154564855
3	1976	19.571251376999	0.114372427221
3	1983	19.68562380422	0.005915013204
3	1985	19.691538817424	0.001953532922
3	1987	19.693492350346	0.256938934405
3	2002	19.950431284751	0.015568469868
3	2007	19.965999754619	0.020018706392
3	2012	19.986018461011	0.034758978293
3	2017	20.020777439304	0.033126335777
3	2022	20.053903775081	0.01913025049
3	2028	20.073034025571	0.258930940141
3	2036	20.331964965712	0.02206159224
3	2041	20.354026557952	0.046787585996
3	2047	20.400814143948	0.069308157785
3	2052	20.470122301733	0.035595556456
3	2057	20.505717858189	0.006557476462
3	2059	20.512275334651	0.187120337133
3	2069	20.699395671784	0.109702550967
3	2074	20.809098222751	0.062854248827
3	2080	20.871952471578	0.073860094605
3	2085	20.945812566183	0.088495185032
3	2090	21.034307751215	0.029291527316
3	2096	21.063599278531	0.014388635737
3	2101	21.077987914268	0.015747577169
3	2106	21.093735491437	0.009188657736
3	2111	21.102924149173	0.008990544621
3	2116	21.111914693794	0.067408799734
3	2122	21.179323493528	0.030337194167
3	2127	21.209660687695	0.121244670525
3	2134	21.33090535822	0.126072440048
3	2140	21.456977798268	0.12871246976
3	2145	21.585690268028	0.023974418683
3	2151	21.609664686711	0.03523397926
3	2156	21.644898665971	0.003878183335
3	2158	21.648776849306	0.019135887753
3	2166	21.667912737059	0.116515311663
3	2171	21.784428048722	0.051196931972
3	2177	21.835624980694	0.073853445607
3	2183	21.909478426301	0.024510204363
3	2188	21.933988630664	0.054277548078
3	2194	21.988266178742	0.026640498545
3	2199	22.014906677287	0.105924165626
3	2206	22.120830842913	0.046551161844
3	2211	22.167382004757	0.001976944318
3	2213	22.169358949075	0.037305183101
3	2221	22.206664132176	0.059538912814
3	2227	22.26620304499	0.028794343841
3	2232	22.294997388831	0.013673692815
3	2237	22.308671081646	0.024859149215
3	2242	22.333530230861	0.065988528429
3	2249	22.39951875929	0.014580090052
3	2254	22.414098849342	0.12209231329
3	2260	22.536191162632	0.024588048948
3	2265	22.56077921158	0.065799025218
3	2271	22.626578236798	0.009673833078
3	2276	22.636252069876	0.162251431138
3	2282	22.798503501014	0.063531520951
3	2287	22.862035021965	0.009920489831
3	2292	22.871955511796	0.021492068706
3	2297	22.893447580502	0.004874913797
3	2299	22.898322494299	0.034477088676
3	2308	22.932799582975	0.010156500464
3	2313	22.942956083439	0.007974690799
3	2318	22.950930774238	0.084306397868
3	2324	23.035237172106	0.095623470688
3	2329	23.130860642794	0.196758440678
3	2337	23.327619083472	0.118662539997
3	2342	23.446281623469	0.13207976604
3	2347	23.578361389509	0.011956159278
3	2352	23.590317548787	0.059375146251
3	2358	23.649692695038	0.001293551376
3	2360	23.650986246414	0.138381413926
3	2369	23.78936766034	0.041642002443
3	2376	23.831009662783	0.041277693351
3	2381	23.872287356134	0.015615974294
3	2386	23.887903330428	0.054738263859
3	2391	23.942641594287	0.119024806252
3	2396	24.061666400539	0.001908796132
3	2398	24.063575196671	0.1116551411
3	2407	24.175230337771	0.026422315321
3	2413	24.201652653092	0.03030650372
3	2418	24.231959156812	0.131757372881
3	2423	24.363716529693	0.033551541205
3	2429	24.397268070898	0.068638783387
3	2434	24.465906854285	0.021885904816
3	2439	24.487792759101	0.073474768733
3	2445	24.561267527834	0.01045831187
3	2450	24.571725839704	0.181549137596
3	2456	24.7532749773	0.057532919058
3	2462	24.810807896358	0.002479474461
3	2464	24.813287370819	0.045877716917
3	2472	24.859165087736	0.006348335238
3	2474	24.865513422974	0.046335231892
3	2483	24.911848654866	0.134715820985
3	2489	25.046564475851	0.037130912552
3	2494	25.083695388403	0.035472689432
3	2499	25.119168077835	0.033254476902
3	2504	25.152422554737	0.039635233842
3	2509	25.192057788579	0.112308391753
3	2514	25.304366180332	0.085098712426
3	2520	25.389464892758	0.021627123433
3	2525	25.411092016191	0.128720387471
3	2531	25.539812403662	0.01048191559
3	2536	25.550294319252	0.066096137809
3	2541	25.616390457061	0.009236997416
3	2546	25.625627454477	0.001123774978
3	2548	25.626751229455	0.027799208262
3	2556	25.654550437717	0.00764588734
3	2561	25.662196325057	6.1730272e-05
3	2563	25.662258055329	0.028157943835
3	2572	25.690415999164	0.081729153031
3	2578	25.772145152195	0.005898040528
3	2580	25.778043192723	0.131954103735
3	2588	25.909997296458	0.117512480794
3	2594	26.027509777252	0.035890182289
3	2600	26.063399959541	0.011641448696
3	2605	26.075041408237	0.050648475724
3	2611	26.125689883961	0.005004176075
3	2613	26.130694060036	0.083843413546
3	2621	26.214537473582	0.014214599409
3	2626	26.228752072991	0.050017867747
3	2632	26.278769940738	0.037915855461
3	2639	26.316685796199	0.076367257047
3	2646	26.393053053246	0.00074334284
3	2648	26.393796396086	0.066618055577
3	2658	26.460414451663	0.122211962042
3	2664	26.582626413705	0.013307134274
3	2669	26.595933547979	0.069988042532
3	2674	26.665921590511	0.000818057091
3	2676	26.666739647602	0.080281666292
3	2685	26.747021313894	0.001607357278
3	2687	26.748628671172	0.166742021621
3	2695	26.915370692793	0.006758676937
3	2698	26.92212936973	0.05255550022
3	2706	26.97468486995	0.031262267498
3	2712	27.005947137448	0.021974944218
3	2718	27.027922081666	0.013620870685
3	2723	27.041542952351	0.011135721919
3	2728	27.05267867427	0.033538000041
3	2733	27.086216674311	0.035547252985
3	2738	27.121763927296	0.073145274858
3	2744	27.194909202154	0.001537393014
3	2746	27.196446595168	0.048574980101
3	2754	27.245021575269	0.013446168142
3	2759	27.258467743411	0.082619131706
3	2764	27.341086875117	0.122313366707
3	2770	27.463400241824	0.014600882087
3	2775	27.478001123911	0.003839263025
3	2777	27.481840386936	0.059728398603
3	2787	27.541568785539	0.034619169553
3	2792	27.576187955092	0.103598009882
3	2798	27.679785964974	0.123611439563
3	2804	27.803397404537	0.004694719823
3	2806	27.80809212436	0.004590154387
3	2811	27.812682278747	0.003864817844
3	2813	27.816547096591	0.020165831552
3	2821	27.836712928143	0.028643050179
3	2829	27.865355978322	0.026404549981
3	2834	27.891760528303	0.035506648527
3	2839	27.92726717683	0.035716781224
3	2844	27.962983958054	0.08874399953
3	2850	28.051727957584	0.099322459785
3	2857	28.151050417369	0.067124614607
3	2863	28.218175031976	0.02148519159
3	2868	28.239660223566	0.00768482606
3	2870	28.247345049626	0.093363634321
3	2879	28.340708683947	0.012363622771
3	2884	28.353072306718	0.035194240249
3	2889	28.388266546967	0.119865429986
3	2894	28.508131976953	0.008761552081
3	2899	28.516893529034	0.060330530181
3	2906	28.577224059215	0.006586094693
3	2908	28.583810153908	0.051153321716
3	2917	28.634963475624	0.108948155027
3	2924	28.743911630651	0.092186138893
3	2929	28.836097769544	0.014726587951
3	2934	28.850824357495	0.005387047378
3	2936	28.856211404873	0.053163989811
3	2944	28.909375394684	0.023636642166
3	2950	28.93301203685	0.018797660748
3	2955	28.951809697598	0.077747124155
3	2960	29.029556821753	0.00343263214
3	2963	29.032989453893	0.096764715778
3	2972	29.129754169671	0.044509467726
3	2977	29.174263637397	0.068696767889
3	2982	29.242960405286	0.010656298032
3	2987	29.253616703318	0.132164469979
3	2993	29.385781173297	0.077030037998
3	3000	29.462811211295	0.033850622069
3	3005	29.496661833364	0.035291182431
3	3010	29.531953015795	0.009907982445
3	3015	29.54186099824	0.029373133697
3	3020	29.571234131937	0.06444196077
3	3026	29.635676092707	0.034630950156
3	3031	29.670307042863	0.022494699277
3	3036	29.69280174214	0.179683577632
3	3041	29.872485319772	0.015806788331
3	3047	29.888292108103	0.021458881924
3	3052	29.909750990027	0.02395389811
3	3057	29.933704888137	0.010106406545
3	3062	29.943811294682	0.017562606182
3	3068	29.961373900864	0.014457844059
3	3074	29.975831744923	0.108148366289
3	3079	30.083980111212	0.031074519503
3	3084	30.115054630715	0.014955969253
3	3089	30.130010599968	0.055356846035
3	3095	30.185367446003	0.033113867712
3	3102	30.218481313715	0.11978839993
3	3107	30.338269713645	0.030118166836
3	3112	30.368387880481	0.126909434995
3	3117	30.495297315476	0.035212277996
3	3122	30.530509593472	0.005618648501
3	3124	30.536128241973	0.064201429767
3	3132	30.60032967174	0.054325129973
3	3137	30.654654801713	0.01027785548
3	3143	30.664932657193	0.047275049452
3	3148	30.712207706645	0.081215742153
3	3154	30.793423448798	0.073716804721
3	3159	30.867140253519	0.04145165775
3	3165	30.908591911269	0.01700051211
3	3170	30.925592423379	0.008198437565
3	3175	30.933790860944	0.021197424854
3	3180	30.954988285798	0.000192609422
3	3182	30.95518089522	0.016380030704
3	3191	30.971560925924	0.028112642151
3	3196	30.999673568075	0.035624095499
3	3202	31.035297663574	0.020981483302
3	3207	31.056279146876	0.011290850907
3	3212	31.067569997783	0.024040979133
3	3217	31.091610976916	0.035440935505
3	3222	31.127051912421	0.183181723026
3	3228	31.310233635447	0.085640064163
3	3233	31.39587369961	0.094688210072
3	3240	31.490561909682	0.041812552136
3	3245	31.532374461818	0.307286984086
3	3253	31.839661445904	0.112945622024
3	3258	31.952607067928	0.020960689267
3	3263	31.973567757195	0.058523041699
3	3268	32.032090798894	0.039994124744
3	3273	32.072084923638	0.040698995431
3	3281	32.112783919069	0.040763742908
3	3287	32.153547661977	0.038973186327
3	3292	32.192520848304	0.00642731403
3	3295	32.198948162334	0.14043676084
3	3305	32.339384923174	0.044218625438
3	3310	32.383603548612	0.048765502894
3	3315	32.432369051506	0.033966377227
3	3320	32.466335428733	0.076730076447
3	3325	32.54306550518	0.031133172333
3	3330	32.574198677513	0.004814114761
3	3332	32.579012792274	0.070364996398
3	3340	32.649377788672	0.012957108103
3	3345	32.662334896775	0.076407938548
3	3351	32.738742835323	0.008299216177
3	3356	32.7470420515	0.075511083408
3	3362	32.822553134908	0.138892851143
3	3367	32.961445986051	0.210549569617
3	3375	33.171995555668	0.024081167664
3	3380	33.196076723332	0.051814327827
3	3385	33.247891051159	0.145277915367
3	3390	33.393168966526	0.036890250338
3	3395	33.430059216864	0.009331520246
3	3400	33.43939073711	0.072613430556
3	3405	33.512004167666	0.058399090962
3	3411	33.570403258628	0.02212517283
3	3416	33.592528431458	0.034580021563
3	3421	33.627108453021	0.055448700343
3	3426	33.682557153364	0.041749167271
3	3431	33.724306320635	0.009293291798
3	3436	33.733599612433	0.084601431409
3	3441	33.818201043842	0.005953333344
3	3443	33.824154377186	0.069500834749
3	3451	33.893655211935	0.033075913085
3	3456	33.92673112502	0.000420957159
3	3458	33.927152082179	0.208636593064
3	3469	34.135788675243	0.074183225354
3	3475	34.209971900597	0.016084297265
3	3480	34.226056197862	0.004272812726
3	3482	34.230329010588	0.010884868268
3	3490	34.241213878856	0.118613954511
3	3496	34.359827833367	0.001131643618
3	3498	34.360959476985	0.040335444833
3	3506	34.401294921818	0.088534372657
3	3511	34.489829294475	0.018301987299
3	3516	34.508131281774	0.077904070446
3	3522	34.58603535222	0.00984405162
3	3527	34.59587940384	0.004185290521
3	3529	34.600064694361	0.044976482302
3	3538	34.645041176663	0.028095243741
3	3543	34.673136420404	0.031869543508
3	3548	34.705005963912	0.099096388153
3	3555	34.804102352065	0.001925458631
3	3557	34.806027810696	0.299404770887
3	3565	35.105432581583	0.029159702702
3	3570	35.134592284285	0.015334697805
3	3575	35.14992698209	0.01444840848
3	3580	35.16437539057	0.064801160464
3	3586	35.229176551034	0.013129497537
3	3591	35.242306048571	0.014235262266
3	3596	35.256541310837	0.112821018574
3	3601	35.369362329411	0.03686795313
3	3606	35.406230282541	0.04865985692
3	3611	35.454890139461	0.061816948628
3	3616	35.516707088089	0.018369777501
3	3621	35.53507686559	0.041248034302
3	3626	35.576324899892	0.055854037661
3	3632	35.632178937553	0.001516347223
3	3634	35.633695284776	0.054860678119
3	3642	35.688555962895	0.083235982994
3	3647	35.771791945889	0.006857710787
3	3649	35.778649656676	0.05056346809
3	3657	35.829213124766	0.012121747866
3	3662	35.841334872632	0.009421881341
3	3667	35.850756753973	0.022329347497
3	3672	35.87308610147	0.013259833561
3	3677	35.886345935031	0.12803131156
3	3683	36.014377246591	0.035465912561
3	3688	36.049843159152	0.018906329286
3	3693	36.068749488438	0.09955390251
3	3701	36.168303390948	0.064983602568
3	3706	36.233286993516	0.024456500906
3	3712	36.257743494422	0.020415551064
3	3717	36.278159045486	0.004179283409
3	3719	36.282338328895	0.017557932263
3	3727	36.299896261158	0.049837101412
3	3732	36.34973336257	0.014786962471
3	3737	36.364520325041	0.00024048352
3	3739	36.364760808561	0.033728041715
3	3748	36.398488850276	0.03552821147
3	3754	36.434017061746	0.021691439885
3	3759	36.455708501631	0.032653301079
3	3764	36.48836180271	0.121501633891
3	3772	36.609863436601	0.07311837896
3	3778	36.682981815561	0.000198846889
3	3780	36.68318066245	0.103576804457
3	3788	36.786757466907	0.297034911058
3	3797	37.083792377965	0.008247996588
3	3802	37.092040374553	0.024293681644
3	3807	37.116334056197	0.007729786609
3	3812	37.124063842806	0.037806595709
3	3817	37.161870438515	0.043858926048
3	3825	37.205729364563	0.06127455409
3	3831	37.267003918653	0.230292842603
3	3838	37.497296761256	0.029567925788
3	3843	37.526864687044	0.014415311906
3	3848	37.54127999895	0.054995105554
3	3853	37.596275104504	0.022949560156
3	3858	37.61922466466	0.032626360747
3	3863	37.651851025407	0.035391630764
3	3868	37.687242656171	0.046403660631
3	3873	37.733646316802	0.147656286634
3	3878	37.881302603436	0.013900420389
3	3883	37.895203023825	0.015317532352
3	3888	37.910520556177	0.015060539577
3	3893	37.925581095754	0.094695651561
3	3898	38.020276747315	0.015299255809
3	3904	38.035576003124	0.005897496134
3	3906	38.041473499258	0.024813832923
3	3914	38.066287332181	0.103891685349
3	3920	38.17017901753	0.024056507077
3	3925	38.194235524607	0.032087199724
3	3930	38.226322724331	0.024022130217
3	3935	38.250344854548	0.039935908032
3	3940	38.29028076258	0.03342326085
3	3945	38.32370402343	0.049100545818
3	3951	38.372804569248	0.017438959964
3	3956	38.390243529212	0.050310006597
3	3961	38.440553535809	0.099272293238
3	3968	38.539825829047	0.00115134056
3	3970	38.540977169607	0.032011134919
3	3978	38.572988304526	0.00754091716
3	3980	38.580529221686	0.010648193544
3	3988	38.59117741523	0.015324565841
3	3993	38.606501981071	0.064695145385
3	3999	38.671197126456	0.041371878833
3	4005	38.712569005289	0.105667680508
3	4011	38.818236685797	0.001391239433
3	4013	38.81962792523	0.04995199981
3	4021	38.86957992504	0.021465435375
3	4026	38.891045360415	0.024604049512
3	4031	38.915649409927	0.038787392378
3	4036	38.954436802305	0.116608664747
3	4041	39.071045467052	0.029064943952
3	4046	39.100110411004	0.058145175918
3	4051	39.158255586922	0.078734212865
3	4057	39.236989799787	0.071563310561
3	4063	39.308553110348	0.159212649601
3	4069	39.467765759949	0.040039381427
3	4074	39.507805141376	0.007360666892
3	4076	39.515165808268	0.026394020959
3	4084	39.541559829227	0.053043196871
3	4089	39.594603026098	0.008259752623
3	4091	39.602862778721	0.00011305225
3	4093	39.602975830971	0.086502892593
3	4104	39.689478723564	0.022801286969
3	4109	39.712280010533	0.035465132789
3	4114	39.747745143322	0.034398596428
3	4119	39.78214373975	0.021326664033
3	4124	39.803470403783	0.053681642055
3	4129	39.857152045838	0.027685847976
3	4134	39.884837893814	0.055824873114
3	4139	39.940662766928	0.135180519074
3	4145	40.075843286002	0.053453763143
3	4150	40.129297049145	0.042126689234
3	4155	40.171423738379	0.011287564581
3	4160	40.18271130296	0.132264151817
3	4167	40.314975454777	0.022676725617
3	4172	40.337652180394	0.042258243471
3	4178	40.379910423865	0.057404738984
3	4183	40.437315162849	0.015931357684
3	4188	40.453246520533	0.088477654877
3	4193	40.54172417541	0.019136166978
3	4198	40.560860342388	0.193305888513
3	4207	40.754166230901	0.040766225556
3	4212	40.794932456457	0.002952191526
3	4214	40.797884647983	0.091775036368
3	4223	40.889659684351	0.038925033577
3	4228	40.928584717928	0.031841484537
3	4233	40.960426202465	0.058639727623
3	4238	41.019065930088	0.035321126815
3	4243	41.054387056903	0.026690841235
3	4248	41.081077898138	0.002382549223
3	4250	41.083460447361	0.001742834087
3	4252	41.085203281448	0.045326124575
3	4263	41.130529406023	0.01365767046
3	4268	41.144187076483	0.139099245479
3	4273	41.283286321962	0.019129288653
3	4278	41.302415610615	0.00064739272
3	4280	41.303063003335	0.017386738751
3	4288	41.320449742086	0.036757423213
3	4294	41.357207165299	0.054822178993
3	4300	41.412029344292	0.039211429838
3	4306	41.45124077413	0.014475026219
3	4311	41.465715800349	0.01302187283
3	4316	41.478737673179	0.177789858124
3	4321	41.656527531303	0.028698458257
3	4326	41.68522598956	0.142300099114
3	4333	41.827526088674	0.034381256738
3	4339	41.861907345412	0.162896804364
3	4344	42.024804149776	0.019588961544
3	4349	42.04439311132	0.008877389895
3	4354	42.053270501215	0.010245505836
3	4359	42.063516007051	0.023661426249
3	4364	42.0871774333	0.001692970633
3	4366	42.088870403933	0.153730358347
3	4376	42.24260076228	0.068096904607
3	4382	42.310697666887	0.021634818456
3	4387	42.332332485343	0.147351272877
3	4392	42.47968375822	0.000334407014
3	4394	42.480018165234	0.044136786088
3	4402	42.524154951322	0.043148220087
3	4407	42.567303171409	0.034009036392
3	4412	42.601312207801	0.144326871868
3	4417	42.745639079669	0.131988305057
3	4422	42.877627384726	0.082128465419
3	4427	42.959755850145	0.095255297464
3	4433	43.055011147609	0.003491644828
3	4435	43.058502792437	0.020606210862
3	4443	43.079109003299	5.0172205e-05
3	4445	43.079159175504	0.076358276967
3	4453	43.155517452471	0.069291272246
3	4458	43.224808724717	0.008578277843
3	4463	43.23338700256	0.050660995899
3	4468	43.284047998459	0.131944784279
3	4473	43.415992782738	0.033462652214
3	4479	43.449455434952	0.117354364214
3	4485	43.566809799166	0.068327267624
3	4492	43.63513706679	0.099711374861
3	4497	43.734848441651	0.005258616163
3	4499	43.740107057814	0.027337219171
3	4508	43.767444276985	0.001340072991
3	4510	43.768784349976	0.078753482656
3	4518	43.847537832632	0.041062222408
3	4524	43.88860005504	0.016696834814
3	4529	43.905296889854	0.024204105167
3	4534	43.929500995021	0.250121858464
3	4539	44.179622853485	0.034588518163
3	4544	44.214211371648	0.060233190823
3	4549	44.274444562471	0.116508650413
3	4556	44.390953212884	0.056901714145
3	4562	44.447854927029	0.070068481111
3	4568	44.51792340814	0.066184795122
3	4573	44.584108203262	0.001994477732
3	4575	44.586102680994	0.012330558506
3	4581	44.5984332395	0.082382419151
3	4589	44.680815658651	0.059599395739
3	4595	44.74041505439	0.034529498904
3	4600	44.774944553294	0.175598305472
3	4609	44.950542858766	0.103420038669
3	4615	45.053962897435	0.060021169901
3	4620	45.113984067336	0.035684820543
3	4625	45.149668887879	0.027782618974
3	4630	45.177451506853	0.002028950161
3	4632	45.179480457014	0.00044284745
3	4634	45.179923304464	0.036225184112
3	4645	45.216148488576	0.018706920988
3	4650	45.234855409564	0.086216914816
3	4656	45.32107232438	0.113530585645
3	4661	45.434602910025	0.090799024832
3	4666	45.525401934857	0.096390407841
3	4671	45.621792342698	0.03818062975
3	4676	45.659972972448	0.01396371472
3	4681	45.673936687168	0.046977639884
3	4686	45.720914327052	0.044378971185
3	4692	45.765293298237	0.04410919609
3	4699	45.809402494327	0.009820104687
3	4704	45.819222599014	0.005881999055
3	4706	45.825104598069	0.131965530323
3	4715	45.957070128392	0.001013895295
3	4717	45.958084023687	0.025013402941
3	4725	45.983097426628	0.00964216169
3	4731	45.992739588318	0.000712686074
3	4733	45.993452274392	0.25610263821
3	4742	46.249554912602	0.006203056395
3	4744	46.255757968997	0.004271624105
3	4749	46.260029593102	0.028170739027
3	4757	46.288200332129	0.050886278392
3	4762	46.339086610521	0.04075745234
3	4767	46.379844062861	0.082842642591
3	4773	46.462686705452	0.074933317814
3	4778	46.537620023266	0.020094591825
3	4783	46.557714615091	0.071482109412
3	4789	46.629196724503	0.018194448885
3	4795	46.647391173388	0.051906380771
3	4800	46.699297554159	0.208597701112
3	4806	46.907895255271	0.003048093747
3	4808	46.910943349018	0.046578525071
3	4816	46.957521874089	0.015082571688
3	4821	46.972604445777	0.089850502183
3	4827	47.06245494796	0.004707231594
3	4829	47.067162179554	0.007576166892
3	4834	47.074738346446	0.088183290242
3	4844	47.162921636688	0.129332154583
3	4849	47.292253791271	0.150537939184
3	4856	47.442791730455	0.033871411381
3	4861	47.476663141836	0.005671764989
3	4863	47.482334906825	0.005964924282
3	4868	47.488299831107	0.055176407299
3	4876	47.543476238406	0.002768037882
3	4878	47.546244276288	0.039679402509
3	4886	47.585923678797	0.039531638509
3	4891	47.625455317306	0.027419366579
3	4897	47.652874683885	0.023300558196
3	4902	47.676175242081	0.075677855987
3	4907	47.751853098068	0.111084039452
3	4913	47.86293713752	0.117635388171
3	4920	47.980572525691	0.120564414649
3	4925	48.10113694034	0.083161833238
3	4931	48.184298773578	0.012374340247
3	4936	48.196673113825	0.210113735241
3	4944	48.406786849066	0.045657899558
3	4949	48.452444748624	0.010644070705
3	4955	48.463088819329	0.06020047487
3	4962	48.523289294199	0.259032451834
3	4968	48.782321746033	0.062441631409
3	4973	48.844763377442	0.027744225976
3	4979	48.872507603418	0.017781448103
3	4984	48.890289051521	0.003589052334
3	4986	48.893878103855	0.029782426045
3	4994	48.9236605299	0.129292821891
3	4999	49.052953351791	0.028464223531
3	5004	49.081417575322	0.072097881367
3	5009	49.153515456689	0.003839594703
3	5011	49.157355051392	0.004314819883
3	5016	49.161669871275	0.079786337041
3	5024	49.241456208316	0.042286598241
3	5029	49.283742806557	0.046190820143
3	5035	49.3299336267	0.08550383249
3	5040	49.41543745919	0.014193182993
3	5045	49.429630642183	0.00454319851
3	5047	49.434173840693	0.006068910126
3	5052	49.440242750819	0.023205669479
3	5060	49.463448420298	0.041580243105
3	5066	49.505028663403	0.000215324583
3	5068	49.505243987986	0.045349215637
3	5076	49.550593203623	0.021448061516
3	5081	49.572041265139	0.120899447206
3	5088	49.692940712345	0.128997449751
3	5097	49.821938162096	0.048385425278
3	5102	49.870323587374	0.045715117409
3	5107	49.916038704783	0.051941484912
3	5113	49.967980189695	0.00064237602
3	5115	49.968622565715	0.165528246448
3	5127	50.134150812163	0.061421880708
3	5132	50.195572692871	0.018039836791
3	5138	50.213612529662	0.015158330559
3	5143	50.228770860221	0.013593967777
3	5148	50.242364827998	0.054507361869
3	5153	50.296872189867	0.017914381749
3	5158	50.314786571616	0.049917638044
3	5164	50.36470420966	0.125367198568
3	5170	50.490071408228	0.241995491381
3	5176	50.732066899609	0.065905872104
3	5181	50.797972771713	0.117603738935
3	5186	50.915576510648	0.066268340958
3	5193	50.981844851606	0.02606028981
3	5198	51.007905141416	0.002130527054
3	5200	51.01003566847	0.004426174269
3	5202	51.014461842739	0.079378216855
3	5213	51.093840059594	0.010354734128
3	5219	51.104194793722	0.034128136661
3	5225	51.138322930383	0.054763834803
3	5230	51.193086765186	0.012682072132
3	5235	51.205768837318	0.030948692922
3	5241	51.23671753024	0.006724044471
3	5244	51.243441574711	0.057363705156
3	5252	51.300805279867	0.016139945607
3	5257	51.316945225474	0.019877572864
3	5262	51.336822798338	0.0476074711
3	5268	51.384430269438	0.056829428768
3	5274	51.441259698206	0.02615476666
3	5279	51.467414464866	0.095108602894
3	5284	51.56252306776	0.053517271683
3	5289	51.616040339443	0.076947869908
3	5294	51.692988209351	0.048291267366
3	5299	51.741279476717	0.058365937842
3	5305	51.799645414559	0.015025940025
3	5310	51.814671354584	0.053821210632
3	5316	51.868492565216	0.006967057476
3	5318	51.875459622692	0.038642256113
3	5326	51.914101878805	0.053517285094
3	5331	51.967619163899	0.101420849974
3	5337	52.069040013873	0.068881639282
3	5343	52.137921653155	0.021477435163
3	5348	52.159399088318	0.065408550287
3	5353	52.224807638605	0.038448432159
3	5358	52.263256070764	0.044601849029
3	5363	52.307857919793	0.017989703464
3	5368	52.325847623257	0.007752641431
3	5370	52.333600264688	0.009874396173
3	5378	52.343474660861	0.067170900297
3	5383	52.410645561158	0.128298570247
3	5391	52.538944131405	0.142796539667
3	5397	52.681740671072	0.155406919773
3	5403	52.837147590845	0.055212621889
3	5409	52.892360212734	0.030303414526
3	5414	52.92266362726	0.004931581367
3	5416	52.927595208627	0.022519910218
3	5425	52.950115118845	0.027133172667
3	5430	52.977248291512	0.000331279265
3	5432	52.977579570777	0.040252901511
3	5440	53.017832472288	0.290381230228
3	5450	53.308213702516	0.098548667584
3	5457	53.4067623701	0.134814033513
3	5465	53.541576403613	0.036989824901
3	5470	53.578566228514	0.012873603084
3	5475	53.591439831598	0.02443940463
3	5480	53.615879236228	0.034816338511
3	5485	53.650695574739	0.018092961975
3	5490	53.668788536714	0.025571753405
3	5495	53.694360290119	0.033054661624
3	5500	53.727414951743	0.020007417087
3	5505	53.74742236883	0.076988576041
3	5510	53.824410944871	0.003819019335
3	5512	53.828229964206	0.006969829929
3	5517	53.835199794135	0.039115965871
3	5525	53.874315760006	0.015679214426
3	5530	53.889994974432	0.07769494969
3	5535	53.967689924122	0.017251254913
3	5540	53.984941179035	0.008235187758
3	5545	53.993176366793	0.024901255027
3	5550	54.01807762182	0.055890578321
3	5556	54.073968200141	0.060723600605
3	5562	54.134691800746	0.016620307914
3	5567	54.15131210866	0.045453202427
3	5572	54.196765311087	0.120808657513
3	5577	54.3175739686	0.027534855014
3	5582	54.345108823614	0.009766355528
3	5587	54.354875179142	0.011087720395
3	5592	54.365962899537	0.02917710701
3	5597	54.395140006547	0.012787778689
3	5602	54.407927785236	0.111726262197
3	5608	54.519654047433	0.125020355527
3	5614	54.64467440296	0.022448609309
3	5619	54.667123012269	0.081574193565
3	5625	54.748697205834	0.038125586377
3	5630	54.786822792211	0.007030580024
3	5632	54.793853372235	0.202510987188
3	5641	54.996364359423	0.049472865099
3	5646	55.045837224522	0.157678791948
3	5651	55.20351601647	0.000834927493
3	5653	55.204350943963	0.03567474838
3	5662	55.240025692343	0.071135053893
3	5667	55.311160746236	0.015796928391
3	5672	55.326957674627	0.009122012877
3	5677	55.336079687504	0.003840476208
3	5679	55.339920163712	0.030948550304
3	5688	55.370868714016	0.072750190376
3	5695	55.443618904392	0.004005835016
3	5697	55.447624739408	0.006350832229
3	5703	55.453975571637	0.213548859095
3	5711	55.667524430732	0.108985768755
3	5719	55.776510199487	0.069209127217
3	5724	55.845719326704	0.054332583785
3	5729	55.900051910489	0.039462336418
3	5735	55.939514246907	0.044809688754
3	5741	55.984323935661	0.000609925329
3	5743	55.98493386099	0.05291383075
3	5752	56.03784769174	0.0447266762
3	5757	56.08257436794	0.012768277391
3	5762	56.095342645331	0.018126721523
3	5767	56.113469366854	0.060091851225
3	5772	56.173561218079	0.015594864119
3	5777	56.189156082198	0.010547416441
3	5782	56.199703498639	0.016053748834
3	5787	56.215757247473	0.03522528307
3	5792	56.250982530543	0.027083282659
3	5797	56.278065813202	0.03660091469
3	5802	56.314666727892	0.164626481885
3	5810	56.479293209777	0.228373821861
3	5817	56.707667031638	0.170622712963
3	5823	56.878289744601	0.121531055301
3	5828	56.999820799902	0.017721322623
3	5833	57.017542122525	0.01330564189
3	5838	57.030847764415	0.002147971624
3	5840	57.032995736039	0.011028271543
3	5846	57.044024007582	0.014065656293
3	5854	57.058089663875	0.011224127138
3	5859	57.069313791013	0.071949270387
3	5865	57.1412630614	0.060188918612
3	5872	57.201451980012	0.007364032693
3	5874	57.208816012705	0.009513072944
3	5882	57.218329085649	0.007529945458
3	5884	57.225859031107	0.008165589587
3	5889	57.234024620694	0.106950316159
3	5898	57.340974936853	0.00751537428
3	5900	57.348490311133	0.003805524052
3	5905	57.352295835185	0.010135180138
3	5910	57.362431015323	0.094811121757
3	5919	57.45724213708	0.064784101977
3	5925	57.522026239057	0.003294317984
3	5927	57.525320557041	0.023303209288
3	5935	57.548623766329	0.046443693708
3	5940	57.595067460037	0.0039050296
3	5942	57.598972489637	0.00641415595
3	5947	57.605386645587	0.057722078188
3	5956	57.663108723775	0.01157244521
3	5962	57.674681168985	0.031450228932
3	5968	57.706131397917	0.020594095673
3	5973	57.72672549359	0.003449929632
3	5975	57.730175423222	0.05329406212
3	5983	57.783469485342	0.055426835694
3	5988	57.838896321036	0.004016829815
3	5990	57.842913150851	0.01413716192
3	5998	57.857050312771	0.048206479291
3	6003	57.905256792062	0.078000544835
3	6008	57.983257336897	0.220330864028
3	6015	58.203588200925	0.001610668604
3	6017	58.205198869529	0.002108066945
3	6019	58.207306936474	0.017431170145
3	6027	58.224738106619	0.044701660519
3	6035	58.269439767138	0.035637950478
3	6040	58.305077717616	0.00759172788
3	6042	58.312669445496	0.025025108487
3	6050	58.337694553983	0.155536697484
3	6056	58.493231251467	0.060190131904
3	6061	58.553421383371	0.007858249381
3	6063	58.561279632752	0.021251515384
3	6071	58.582531148136	0.06107583318
3	6076	58.643606981316	0.00900728278
3	6081	58.652614264096	0.009151450446
3	6086	58.661765714542	0.071121476751
3	6091	58.732887191293	0.037414170438
3	6097	58.770301361731	0.211709911156
3	6105	58.982011272887	0.011485976138
3	6110	58.993497249025	0.22675999056
3	6116	59.220257239585	0.020554963322
3	6121	59.240812202907	0.076755991892
3	6126	59.317568194799	0.015682092878
3	6131	59.333250287677	0.021478674653
3	6136	59.35472896233	0.025140919238
3	6141	59.379869881568	0.027584852992
3	6146	59.40745473456	0.007303730728
3	6148	59.414758465288	0.038393632891
3	6157	59.453152098179	0.039856117505
3	6163	59.493008215684	0.108499366483
3	6168	59.601507582167	0.015852835791
3	6174	59.617360417958	0.035899610474
3	6180	59.653260028432	0.023177561892
3	6185	59.676437590324	0.001194467319
3	6187	59.677632057643	0.056151428019
3	6196	59.733783485662	0.151742032714
3	6201	59.885525518376	0.111511328349
3	6206	59.997036846725	0.04552442363
3	6211	60.042561270355	0.214937219283
3	6218	60.257498489638	0.086175711509
3	6223	60.343674201147	0.134919604778
3	6229	60.478593805925	0.041106221714
3	6235	60.519700027639	0.022082569416
3	6240	60.541782597055	0.029954237048
3	6245	60.571736834103	0.023279955696
3	6250	60.595016789799	0.085728201843
3	6256	60.680744991642	0.012139603995
3	6261	60.692884595637	0.00494923869
3	6263	60.697833834327	0.0067043615
3	6268	60.704538195827	0.031694227961
3	6276	60.736232423788	0.014715339594
3	6281	60.750947763382	0.006044628921
3	6283	60.756992392303	0.120695103588
3	6292	60.877687495891	0.04726476421
3	6297	60.924952260101	0.032185721788
3	6302	60.957137981889	0.055756982764
3	6307	61.012894964653	0.018775473898
3	6312	61.031670438551	0.005185275834
3	6314	61.036855714385	0.07877429115
3	6323	61.115630005535	0.076319891804
3	6328	61.191949897339	0.044999715416
3	6333	61.236949612755	0.073146196034
3	6338	61.310095808789	0.012129994563
3	6344	61.322225803352	0.017176592704
3	6349	61.339402396056	0.069237810129
3	6355	61.408640206185	0.061701654509
3	6360	61.470341860694	0.003101202844
3	6362	61.473443063538	0.020634772591
3	6370	61.494077836129	0.030682411455
3	6375	61.524760247584	0.03967701811
3	6381	61.564437265694	0.034104794301
3	6386	61.598542059995	0.004324103286
3	6388	61.602866163281	0.041039316287
3	6397	61.643905479568	0.048436415418
3	6402	61.692341894986	0.09147523067
3	6407	61.783817125656	0.017865072067
3	6413	61.801682197723	0.004450936736
3	6415	61.806133134459	0.018049336875
3	6423	61.824182471334	0.153679252234
3	6428	61.977861723568	0.038736281956
3	6433	62.016598005524	0.015108581825
3	6438	62.031706587349	0.144625528741
3	6445	62.17633211609	0.006708931401
3	6447	62.183041047491	0.042157307633
3	6455	62.225198355124	0.069558205683
3	6461	62.294756560807	0.105294392199
3	6466	62.400050953006	0.030283785004
3	6471	62.43033473801	0.036931924443
3	6476	62.467266662453	0.006137515627
3	6478	62.47340417808	0.033749888515
3	6486	62.507154066595	0.044481248708
3	6491	62.551635315303	0.065006994085
3	6498	62.616642309388	0.016843921062
3	6503	62.63348623045	0.036628875046
3	6508	62.670115105496	0.120862866455
3	6516	62.790977971951	0.022032614824
3	6521	62.813010586775	0.12740067665
3	6529	62.940411263425	0.074367995111
3	6536	63.014779258536	0.014087404715
3	6541	63.028866663251	0.196165579807
3	6548	63.225032243058	0.083345875806
3	6553	63.308378118864	0.206931457224
3	6559	63.515309576088	4.5040751e-05
3	6561	63.515354616839	0.010428935655
3	6566	63.525783552494	0.053654796817
3	6574	63.579438349311	0.032333412924
3	6580	63.611771762235	0.003902711534
3	6582	63.615674473769	0.00034995289
3	6584	63.616024426659	0.019141399289
3	6596	63.635165825948	0.132237578203
3	6602	63.767403404151	0.012255739811
3	6607	63.779659143962	0.031445742712
3	6612	63.811104886674	0.02966924337
3	6617	63.840774130044	0.118549192367
3	6622	63.959323322411	0.055233640475
3	6627	64.014556962886	0.005108228699
3	6629	64.019665191585	0.004882103735
3	6634	64.02454729532	0.013206005689
3	6642	64.037753301009	0.129889879833
3	6649	64.167643180842	0.127638629186
3	6657	64.295281810028	0.052842355787
3	6663	64.348124165815	0.020153166601
3	6669	64.368277332416	0.016609363316
3	6674	64.384886695732	0.042046416173
3	6679	64.426933111905	0.042918136761
3	6684	64.469851248666	0.038379409913
3	6689	64.508230658579	0.082014363893
3	6694	64.590245022472	0.010568863766
3	6699	64.600813886238	0.006199948295
3	6701	64.607013834533	0.155943126568
3	6711	64.762956961101	0.016417944655
3	6716	64.779374905756	0.02030643433
3	6721	64.799681340086	0.026382109173
3	6726	64.826063449259	0.015693631738
3	6731	64.841757080997	0.071696177832
3	6736	64.913453258829	0.050814223261
3	6741	64.96426748209	0.017879218441
3	6746	64.982146700531	0.074827435694
3	6751	65.056974136225	0.015866647508
3	6756	65.072840783733	0.020150493493
3	6761	65.092991277226	3.766969e-06
3	6763	65.092995044195	0.016975160891
3	6772	65.109970205086	0.011770950014
3	6777	65.1217411551	0.004675677927
3	6779	65.126416833027	0.031215050247
3	6787	65.157631883274	0.127129203406
3	6793	65.28476108668	0.03108867121
3	6798	65.31584975789	0.012144231885
3	6803	65.327993989775	0.021880743806
3	6808	65.349874733581	0.023380406062
3	6813	65.373255139643	0.051807530864
3	6818	65.425062670507	0.074549019689
3	6823	65.499611690196	0.088929197107
3	6830	65.588540887303	0.049712096393
3	6835	65.638252983696	0.033900118113
3	6840	65.672153101809	0.020745439253
3	6845	65.692898541062	0.082709211331
3	6852	65.775607752393	0.040485215334
3	6858	65.816092967727	0.218641310934
3	6867	66.034734278661	0.058104165463
3	6872	66.092838444124	0.009981612992
3	6877	66.102820057116	0.087595106107
3	6882	66.190415163223	0.045000897559
3	6888	66.235416060782	0.048740220509
3	6893	66.284156281291	0.120050971213
3	6898	66.404207252504	0.07841825693
3	6905	66.482625509434	0.012630272648
3	6910	66.495255782082	0.131927625606
3	6919	66.627183407688	0.03553650199
3	6924	66.662719909678	0.045664104359
3	6929	66.708384014037	0.04436359319
3	6934	66.752747607227	0.004577868841
3	6936	66.757325476068	0.000494542368
3	6938	66.757820018436	0.014020112912
3	6946	66.771840131348	0.093717521994
3	6955	66.865557653342	0.000437452207
3	6957	66.865995105549	0.014179066242
3	6965	66.880174171791	0.018320509618
3	6970	66.898494681409	0.047939893214
3	6975	66.946434574623	0.003983265385
3	6977	66.950417840008	0.071540293637
3	6985	67.021958133645	0.109384331527
3	6991	67.131342465172	0.13253483801
3	6997	67.263877303182	0.140950042574
3	7002	67.404827345756	0.100165716326
3	7008	67.504993062082	0.028072939453
3	7014	67.533066001535	0.010767488541
3	7020	67.543833490076	0.013602178694
3	7025	67.55743566877	0.021016129458
3	7030	67.578451798228	0.041197557047
3	7035	67.619649355275	0.009278671366
3	7040	67.628928026641	0.081644680488
3	7045	67.710572707129	0.022631622705
3	7050	67.733204329834	0.102113731045
3	7058	67.835318060879	0.026518011114
3	7063	67.861836071993	0.074942511193
3	7068	67.936778583186	0.05307319555
3	7075	67.989851778736	0.003798223568
3	7077	67.993650002304	0.104046667184
3	7086	68.097696669488	0.141804532404
3	7092	68.239501201892	0.099686798333
3	7097	68.339188000225	0.086580719858
3	7102	68.425768720083	0.082262955563
3	7107	68.508031675646	0.05708003296
3	7112	68.565111708606	0.004251962906
3	7114	68.569363671512	0.003588063995
3	7116	68.572951735507	0.017464105731
3	7127	68.590415841238	0.083009800511
3	7132	68.673425641749	0.006502740888
3	7134	68.679928382637	0.055084598677
3	7143	68.735012981314	0.023259418608
3	7148	68.758272399922	0.001546878151
3	7150	68.759819278073	0.05331011631
3	7158	68.813129394383	0.006784878452
3	7161	68.819914272835	0.024076455153
3	7169	68.843990727988	0.015818239973
3	7174	68.859808967961	0.024609781861
3	7179	68.884418749822	0.086929368716
3	7185	68.971348118538	0.172190453064
3	7191	69.143538571602	0.015533203905
3	7196	69.159071775507	0.126732847413
3	7203	69.28580462292	0.048485099629
3	7208	69.334289722549	0.036743939764
3	7214	69.371033662313	0.028381203485
3	7220	69.399414865798	0.027547792398
3	7225	69.426962658196	0.012651575675
3	7232	69.439614233871	0.062474558294
3	7237	69.502088792165	0.052148114946
3	7242	69.554236907111	0.048117852827
3	7247	69.602354759938	0.002834093794
3	7249	69.605188853732	0.126131248597
3	7258	69.731320102329	0.026787693729
3	7263	69.758107796058	0.022809378098
3	7268	69.780917174156	0.002056092934
3	7270	69.78297326709	0.051994990807
3	7279	69.834968257897	0.073952869033
3	7284	69.90892112693	0.015717838278
3	7289	69.924638965208	0.004054083849
3	7291	69.928693049057	0.041505236775
3	7300	69.970198285832	0.033155165935
3	7306	70.003353451767	0.045287014178
3	7311	70.048640465945	0.031417264368
3	7316	70.080057730313	0.026439224364
3	7321	70.106496954677	0.056520803003
3	7326	70.16301775768	0.07117754947
3	7331	70.23419530715	0.024019244149
3	7336	70.258214551299	0.043213352087
3	7341	70.301427903386	0.017617132905
3	7346	70.319045036291	0.061013856835
3	7353	70.380058893126	0.038678565671
3	7358	70.418737458797	0.049838833605
3	7364	70.468576292402	0.021055225455
3	7369	70.489631517857	0.006092840235
3	7371	70.495724358092	0.030476118093
3	7379	70.526200476185	0.049685797527
3	7386	70.575886273712	0.061635129581
3	7392	70.637521403293	0.117872559564
3	7398	70.755393962857	0.055588837002
3	7405	70.810982799859	0.048778557302
3	7410	70.859761357161	0.043779570804
3	7415	70.903540927965	0.000879943078
3	7417	70.904420871043	0.058969522394
3	7427	70.963390393437	0.048725847741
3	7432	71.012116241178	0.04012541256
3	7437	71.052241653738	0.11283503555
3	7442	71.165076689288	0.014955969395
3	7447	71.180032658683	0.025117596021
3	7452	71.205150254704	0.014430362961
3	7457	71.219580617665	0.074308028073
3	7463	71.293888645738	0.015079268375
3	7468	71.308967914113	0.042733628018
3	7473	71.351701542131	0.015516692972
3	7478	71.367218235103	0.10482794936
3	7484	71.472046184463	0.012033286172
3	7489	71.484079470635	0.004170100525
3	7491	71.48824957116	0.070391376531
3	7499	71.558640947691	0.04892256267
3	7504	71.607563510361	0.169348457121
3	7511	71.776911967482	0.02285794308
3	7516	71.799769910562	0.046892022998
3	7521	71.84666193356	0.073341454804
3	7527	71.920003388364	0.002059299652
3	7529	71.922062688016	0.056581595073
3	7538	71.978644283089	0.002051365921
3	7540	71.98069564901	0.135668633134
3	7549	72.116364282144	0.025722109285
3	7554	72.142086391429	0.025773625188
3	7560	72.167860016617	0.088375142967
3	7565	72.256235159584	0.059724067392
3	7571	72.315959226976	0.172895897978
3	7577	72.488855124954	0.148256026353
3	7583	72.637111151307	0.028101074607
3	7588	72.665212225914	0.01084546376
3	7593	72.676057689674	0.115244583729
3	7601	72.791302273403	0.004096336969
3	7603	72.795398610372	0.151306877575
3	7611	72.946705487947	0.237909823755
3	7620	73.184615311702	0.000968716785
3	7622	73.185584028487	0.011885783196
3	7627	73.197469811683	0.05902552104
3	7636	73.256495332723	0.089076144343
3	7643	73.345571477066	0.015961256945
3	7648	73.361532734011	0.117186142836
3	7653	73.478718876847	0.114187637012
3	7659	73.592906513859	0.003621178214
3	7661	73.596527692073	0.009939787833
3	7667	73.606467479906	0.093118411742
3	7676	73.699585891648	0.018320362709
3	7682	73.717906254357	0.00964005536
3	7687	73.727546309717	0.003532799247
3	7689	73.731079108964	0.028698534374
3	7697	73.759777643338	0.053588895776
3	7703	73.813366539114	0.037327692914
3	7709	73.850694232028	0.048676307739
3	7714	73.899370539767	0.025631146042
3	7719	73.925001685809	0.047743094827
3	7724	73.972744780636	0.024280312294
3	7729	73.99702509293	0.016189607112
3	7734	74.013214700042	0.062338249309
3	7740	74.075552949351	0.065088059668
3	7746	74.140641009019	0.063142631652
3	7753	74.203783640671	0.03111285045
3	7758	74.234896491121	0.009004424196
3	7763	74.243900915317	0.096414175176
3	7768	74.340315090493	0.048975068745
3	7774	74.389290159238	0.007756751311
3	7776	74.397046910549	0.008811965581
3	7781	74.40585887613	0.003481514865
3	7786	74.409340390995	0.04898657704
3	7795	74.458326968035	0.002506046716
3	7797	74.460833014751	0.015306325101
3	7805	74.476139339852	0.033169139583
3	7811	74.509308479435	0.031001091281
3	7816	74.540309570716	0.002255249348
3	7818	74.542564820064	0.016356284413
3	7826	74.558921104477	0.008384045498
3	7828	74.567305149975	0.04344277524
3	7836	74.610747925215	0.03265047669
3	7841	74.643398401905	0.020155594786
3	7846	74.663553996691	0.00296606073
3	7848	74.666520057421	0.017715882023
3	7856	74.684235939444	0.053400278144
3	7864	74.737636217588	0.094594012514
3	7871	74.832230230102	0.092494017864
3	7876	74.924724247966	0.025864555318
3	7882	74.950588803284	0.01539607521
3	7887	74.965984878494	0.049473684851
3	7892	75.015458563345	0.032437596762
3	7897	75.047896160107	0.027162538973
3	7902	75.07505869908	0.023518583275
3	7907	75.098577282355	0.129559001052
3	7916	75.228136283407	0.083878879205
3	7923	75.312015162612	0.047219175692
3	7928	75.359234338304	0.069278331906
3	7933	75.42851267021	0.035875592104
3	7938	75.464388262314	0.012834840316
3	7943	75.47722310263	0.033037905986
3	7948	75.510261008616	0.029303514226
3	7953	75.539564522842	0.121668632664
3	7958	75.661233155506	0.068383026282
3	7963	75.729616181788	0.032441089893
3	7968	75.762057271681	0.011010363458
3	7974	75.773067635139	0.063125407461
3	7979	75.8361930426	0.053395736608
3	7985	75.889588779208	0.051532043684
3	7990	75.941120822892	0.122960943556
3	7995	76.064081766448	0.037712516189
3	8001	76.101794282637	0.002531066603
3	8003	76.10432534924	0.031658720867
3	8011	76.135984070107	0.073312537113
3	8017	76.20929660722	0.056384445575
3	8023	76.265681052795	0.002628893788
3	8025	76.268309946583	0.038503456149
3	8033	76.306813402732	0.109077151385
3	8039	76.415890554117	0.00699696871
3	8041	76.422887522827	0.064062499651
3	8049	76.486950022478	0.151068925436
3	8055	76.638018947914	0.062599328325
3	8061	76.700618276239	0.009857862809
3	8066	76.710476139048	0.026616056945
3	8072	76.737092195993	0.000120876529
3	8074	76.737213072522	0.006510041024
3	8076	76.743723113546	0.04395219896
3	8088	76.787675312506	0.115457091448
3	8094	76.903132403954	0.000918048767
3	8096	76.904050452721	0.070520999115
3	8105	76.974571451836	0.037717836481
3	8110	77.012289288317	0.0322545881
3	8115	77.044543876417	0.036333524732
3	8120	77.080877401149	0.021591720185
3	8125	77.102469121334	0.030072927768
3	8131	77.132542049102	0.011328426521
3	8136	77.143870475623	0.019888291338
3	8141	77.163758766961	0.077263007269
3	8146	77.24102177423	0.002582004053
3	8148	77.243603778283	0.000292740421
3	8150	77.243896518704	0.047291950627
3	8163	77.291188469331	0.043809487202
3	8169	77.334997956533	0.021561037347
3	8174	77.35655899388	0.12798568174
3	8179	77.48454467562	0.036749500152
3	8184	77.521294175772	0.115196595903
3	8190	77.636490771675	0.013588722438
3	8195	77.650079494113	0.0005371668
3	8197	77.650616660913	0.142240676197
3	8206	77.79285733711	0.000294252179
3	8208	77.793151589289	0.060995980368
3	8216	77.854147569657	0.000681801432
3	8218	77.854829371089	0.052938327939
3	8226	77.907767699028	0.007829490233
3	8231	77.915597189261	0.01688810778
3	8237	77.932485297041	0.010474864
3	8242	77.942960161041	0.158161075097
3	8249	78.101121236138	0.086663669505
3	8256	78.187784905643	0.001139241629
3	8258	78.188924147272	0.056109152279
3	8266	78.245033299551	0.058113280949
3	8271	78.3031465805	0.019877289763
3	8276	78.323023870263	0.188965621974
3	8281	78.511989492237	0.005111939648
3	8283	78.517101431885	0.047358987589
3	8291	78.564460419474	0.002758848248
3	8294	78.567219267722	0.116248315089
3	8302	78.683467582811	0.051104056442
3	8307	78.734571639253	0.002206690175
3	8309	78.736778329428	0.001290488482
3	8311	78.73806881791	0.08177378162
3	8323	78.81984259953	0.164020918459
3	8329	78.983863517989	0.021382235891
3	8334	79.00524575388	0.005407091797
3	8336	79.010652845677	0.026979312271
3	8344	79.037632157948	0.003894544928
3	8346	79.041526702876	0.081398351511
3	8354	79.122925054387	0.119639378221
3	8359	79.242564432608	0.008533460973
3	8365	79.251097893581	0.016738193793
3	8370	79.267836087374	0.006578106241
3	8372	79.274414193615	0.048544622731
3	8380	79.322958816346	0.093934389335
3	8388	79.416893205681	0.006099865479
3	8390	79.42299307116	0.10209017083
3	8402	79.52508324199	0.005760099027
3	8405	79.530843341017	0.031136965959
3	8413	79.561980306976	0.044660927878
3	8418	79.606641234854	0.063071659757
3	8424	79.669712894611	0.011265198449
3	8429	79.68097809306	0.079516979757
3	8434	79.760495072817	0.017641609125
3	8439	79.778136681942	0.039495847834
3	8444	79.817632529776	0.047143522861
3	8449	79.864776052637	0.028753113447
3	8455	79.893529166084	0.00265839836
3	8457	79.896187564444	0.02213151491
3	8466	79.918319079354	0.016198777817
3	8471	79.934517857171	0.023699832987
3	8476	79.958217690158	0.047265451115
3	8482	80.005483141273	0.021621583108
3	8487	80.027104724381	0.011362560438
3	8492	80.038467284819	0.185186728216
3	8498	80.223654013035	0.025234689452
3	8504	80.248888702487	0.031400088505
3	8510	80.280288790992	0.074568564787
3	8515	80.354857355779	0.085931991163
3	8522	80.440789346942	0.025783206547
3	8527	80.466572553489	0.000513613839
3	8529	80.467086167328	0.139795416414
3	8537	80.606881583742	0.041325465197
3	8542	80.648207048939	0.018126084189
3	8547	80.666333133128	0.046280133149
3	8552	80.712613266277	0.151495446453
3	8559	80.86410871273	0.110307010528
3	8565	80.974415723258	0.130897817002
3	8571	81.10531354026	0.05194462064
3	8576	81.1572581609	0.034950912696
3	8581	81.192209073596	0.063883016978
3	8586	81.256092090574	0.039184139529
3	8591	81.295276230103	0.041264937762
3	8596	81.336541167865	0.018477245308
3	8601	81.355018413173	0.01159081423
3	8606	81.366609227403	0.099752267907
3	8611	81.46636149531	0.071280926539
3	8616	81.537642421849	0.05628297252
3	8621	81.593925394369	0.010820092606
3	8626	81.604745486975	0.032100443256
3	8631	81.636845930231	0.053706353207
3	8636	81.690552283438	0.006385524003
3	8638	81.696937807441	0.042177904555
[...]
19	14576	135.641333152099	4.6564823543959
19	15082	140.297815506495	2.1037482886874
19	15349	142.401563795182	0.18327335418849
19	15372	142.58483714937	0.17515973005263
19	15420	142.759996879423	4.371150794145
19	15924	147.131147673568	1.3477930146432
19	16078	148.478940688211	0.620143352418
19	16132	149.099084040629	0.65096275764124
19	16212	149.75004679827	0.011195925857264
19	16213	149.761242724127	1.6220954714318
19	16369	151.383338195559	3.0144216061109
19	16732	154.39775980167	0.44842115677848
19	16810	154.846180958448	2.0670993097065
19	17016	156.913280268155	0.92771974635517
19	17135	157.84100001451	1.6769026223777
19	17315	159.517902636888	3.3797822770946
19	17662	162.897684913983	1.5359551225111
19	17799	164.433640036494	0.24987630814584
19	17820	164.68351634464	6.2071016237126
19	18534	170.890617968353	1.1913915879596
19	18647	172.082009556313	6.9093362492596
19	19291	178.991345805573	3.6124224999468
19	19591	182.60376830552	0.13620249398636
19	19622	182.739970799506	11.712394906227
19	20950	194.452365705733	1.6852539072182
19	21109	196.137619612951	0.093701072326144
19	21122	196.231320685277	1.7424025003246
19	21279	197.973723185602	3.3307844817005
19	21674	201.304507667302	5.278367259177
19	22171	206.582874926479	1.4427353797925
19	22285	208.025610306271	3.3518060879336
19	22656	211.377416394205	0.36651576417878
19	22694	211.743932158384	2.3305627274787
19	22930	214.074494885863	2.3303566171972
19	23134	216.40485150306	0.4704538319519
19	23189	216.875305335012	0.2272267469408
19	23224	217.102532081953	2.971113240407
19	23605	220.07364532236	0.80218235568131
19	23706	220.875827678041	0.80941399118805
19	23797	221.685241669229	6.8934268078929
19	24527	228.578668477122	0.9804262984602
19	24634	229.559094775582	3.1483621265726
19	24988	232.707456902155	1.5697644543939
19	25138	234.277221356549	1.590653654395
19	25329	235.867875010944	0.35329040538379
19	25413	236.221165416328	0.55457733506396
19	25450	236.775742751392	0.18549336726682
19	25462	236.961236118659	3.7275920246312
19	25818	240.68882814329	1.6551010091246
19	25999	242.343929152415	1.8308868574398
19	26162	244.174816009855	2.7224902304424
19	26480	246.897306240297	7.197385590142
19	27255	254.094691830439	0.59044750999944
19	27330	254.685139340438	0.50333406184748
19	27402	255.188473402285	0.19519485885225
19	27424	255.383668261137	2.0454682181316
19	27603	257.429136479269	0.17301165509249
19	27615	257.602148134361	0.19883786847763
19	27651	257.800986002839	0.16081469509471
19	27665	257.961800697934	3.3695117383206
19	27989	261.331312436255	4.1494743044657
19	28393	265.480786740721	1.2703575577738
19	28537	266.751144298495	0.75642061481764
19	28645	267.507564913313	0.02772607610814
19	28651	267.535290989421	4.3926848779531
19	29046	271.927975867374	3.1901878306447
19	29351	275.118163698019	3.2043522498189
19	29631	278.322515947838	0.025986121181068
19	29636	278.348502069019	0.5339173470373
19	29688	278.882419416056	1.5692063941774
19	29851	280.451625810233	1.5362298597051
19	29998	281.987855669938	0.62887213398393
19	30024	282.616727803922	2.4463899513497
19	30288	285.063117755272	4.0371502661047
19	30672	289.100268021377	0.51555400539192
19	30743	289.615822026769	2.0763016861166
19	30959	291.692123712886	9.9249108026175
19	31915	301.617034515504	4.476497532433
19	32543	306.093532047937	0.51816502823528
19	32592	306.611697076172	0.078699088897777
19	32606	306.69039616507	0.27197607379826
19	32645	306.962372238868	4.7463796076282
19	33183	311.708751846496	2.3242173124057
19	33477	314.032969158902	0.26341137068761
19	33517	314.29638052959	2.1594808489124
19	33793	316.455861378502	0.17607621211627
19	33805	316.631937590618	2.7143875605256
19	34034	319.346325151144	1.0408149607739
19	34156	320.387140111918	1.5190977837975
19	34281	321.906237895715	3.3545433987167
19	34623	325.260781294432	2.095363717522
19	34869	327.356145011954	0.27169728215078
19	34906	327.627842294105	5.6850668325166
19	35563	333.312909126622	5.3419032294007
19	36093	338.654812356023	8.1819521094867
19	36978	346.83676446551	3.481303574105
19	37418	350.318068039615	0.27894240513926
19	37446	350.597010444754	3.2464682633711
19	37789	353.843478708125	0.2214185480256
19	37817	354.064897256151	0.29531756376548
19	37830	354.360214819916	6.3524535369469
19	38583	360.712668356863	1.3800759378354
19	38744	362.092744294698	0.50843318405747
19	38821	362.601177478755	0.84015939223123
19	38934	363.441336870986	0.33810158085852
19	38985	363.779438451845	0.94763958065549
19	39115	364.7270780325	0.78894868673201
19	39204	365.516026719232	2.8748106046257
19	39586	368.390837323858	0.71431334839285
19	39708	369.105150672251	1.2667419468627
19	39875	370.371892619114	0.80673381768987
19	39962	371.178626436804	2.1049104353004
19	40182	373.283536872104	1.7272098901953
19	40348	375.010746762299	0.16115250024851
19	40376	375.171899262548	6.0902978082122
19	41021	381.26219707076	1.4384524385611
19	41141	382.700649509321	2.6934524744106
19	41501	385.394101983732	0.49492879714554
19	41544	385.889030780878	1.6120120093436
19	41689	387.501042790222	0.019502620168325
19	41691	387.52054541039	0.1198175783571
19	41702	387.640362988747	2.5552461749967
19	41986	390.195609163744	0.45169690640298
19	42030	390.647306070147	0.58731721191473
19	42065	391.234623282062	0.27455779580582
19	42093	391.509181077868	1.7107576774961
19	42237	393.219938755364	1.4575339989772
19	42438	394.677472754341	0.95381985682857
19	42584	395.63129261117	0.66011398992781
19	42624	396.291406601098	0.48653244016723
19	42697	396.777939041265	5.2427797848377
20	1405	13.943678013973	5.2164701330617
20	1935	19.160148147035	0.73532180399989
20	2000	19.895469951035	2.3191475645392
20	2223	22.214617515574	1.924376912302
20	2406	24.138994427876	0.24710787142691
20	2428	24.386102299303	1.2986934527242
20	2571	25.684795752027	3.7354490005539
20	2999	29.420244752581	0.78781007855159
20	3101	30.208054831133	0.51927676293068
20	3153	30.727331594064	0.71160410170183
20	3239	31.438935695766	3.1399172110473
20	3521	34.578852906813	2.6879723333515
20	3830	37.266825240164	4.4889978742173
20	4331	41.755823114381	1.2286245121083
20	4432	42.984447626489	1.6979300325829
20	4591	44.682377659072	2.3222323985178
20	4826	47.00461005759	0.12448730473295
20	4843	47.129097362323	2.6863640610812
20	5096	49.815461423404	0.53173212994023
20	5163	50.347193553344	1.0390198305986
20	5270	51.386213383943	1.4586911561492
20	5405	52.844904540092	0.67164566356094
20	5464	53.516550203653	1.0010874399422
20	5607	54.517637643595	0.37823709696059
20	5640	54.895874740556	1.7873624081978
20	5816	56.683237148754	4.6350600187516
20	6343	61.318297167506	0.48019204975472
20	6412	61.798489217261	0.24456266141882
20	6443	62.04305187868	1.0954849018963
20	6547	63.138536780576	2.3836758609832
20	6828	65.522212641559	2.43013129029
20	7073	67.952343931849	2.6747069930857
20	7391	70.627050924935	0.14697806698174
20	7403	70.774028991917	3.0258557719762
20	7702	73.799884763893	0.040611045112543
20	7708	73.840495809006	1.4678959221539
20	7921	75.30839173116	0.52964199242334
20	7981	75.838033723583	3.4104207194923
20	8361	79.248454443075	1.1261444634147
20	8520	80.37459890649	0.71237484472629
20	8570	81.086973751216	2.36391934282
20	8887	83.450893094036	1.103493664606
20	8968	84.554386758642	2.390565117244
20	9230	86.944951875886	2.9823045143615
20	9468	89.927256390248	0.67296765837291
20	9533	90.600224048621	2.6769624632528
20	9872	93.277186511874	3.5095390028224
20	10262	96.786725514696	0.044347559637362
20	10268	96.831073074333	1.9411253093578
20	10526	98.772198383691	2.5358860087552
20	10792	101.308084392446	1.2197045366462
20	10935	102.527788929092	0.20214838371245
20	10963	102.729937312804	2.5426399699383
20	11277	105.272577282742	1.7237416265884
20	11435	106.99631890933	3.3663315940178
20	11797	110.362650503348	0.16203949619645
20	11828	110.524689999544	6.8652277640934
20	12591	117.389917763637	1.2352551439858
20	12734	118.625172907623	2.3515078008804
20	12944	120.976680708503	7.8874117855337
20	13820	128.864092494037	1.861625793863
20	14025	130.7257182879	5.0532077399128
20	14607	135.778926027813	0.77956643755584
20	14703	136.558492465369	0.21190937646552
20	14741	136.770401841835	0.48624065891887
20	14798	137.256642500754	0.24839766111024
20	14827	137.505040161864	3.0598870619164
20	15113	140.56492722378	2.1360236421312
20	15394	142.700950865911	3.3431204196715
20	15786	146.044071285583	3.3793632905532
20	16176	149.423434576136	0.19863075852021
20	16201	149.622065334656	3.9009397696253
20	16608	153.523005104281	3.6802936965845
20	17035	157.203298800865	6.8289261842613
20	17759	164.032224985126	1.8021650145578
20	17960	165.834389999684	0.026103376474509
20	17963	165.860493376159	1.259315502717
20	18063	167.119808878876	5.56055573376
20	18701	172.680364612636	11.703448289835
20	19816	184.383812902471	4.594398518627
20	20289	188.978211421098	4.4076716310075
20	20831	193.385883052105	0.97122978109626
20	20928	194.357112833201	0.077096544755008
20	20949	194.434209377956	1.1765393236078
20	21063	195.610748701564	1.1078464685984
20	21174	196.718595170162	3.8518519272965
20	21585	200.570447097458	0.40161933758932
20	21637	200.972066435047	2.8344280437073
20	21917	203.806494478754	0.2576391762445
20	21948	204.064133654998	1.9586302301916
20	22126	206.02276388519	2.1199724855415
20	22304	208.142736370731	3.2786617948364
20	22658	211.421398165567	0.5964423749005
20	22703	212.017840540467	1.8339622609273
20	22889	213.851802801394	4.1060651424157
20	23352	217.95786794381	2.3745841360543
20	23643	220.332452079864	1.6451927542347
20	23830	221.977644834099	3.1139574848741
20	24175	225.091602318973	0.26110915963788
20	24208	225.352711478611	1.3706628057433
20	24322	226.723374284354	2.3968054063706
20	24611	229.120179690725	3.3304083836515
20	24966	232.450588074376	2.1223259377848
20	25198	234.572914012161	0.030349748080446
20	25199	234.603263760241	0.76505098355147
20	25256	235.368314743792	0.072673096966906
20	25272	235.440987840759	0.19719454630086
20	25300	235.63818238706	0.0039215553213416
20	25301	235.642103942381	0.97963361107869
20	25426	236.62173755346	0.14403622983871
20	25449	236.765773783299	0.40013844705647
20	25486	237.165912230355	1.0062244269213
20	25559	238.172136657276	2.970882836232
20	25865	241.143019493508	1.2738924340095
20	26010	242.416911927517	4.8136435315321
20	26506	247.230555459049	4.3407283239713
20	26989	251.57128378302	0.64644369036622
20	27086	252.217727473386	1.0638731556626
20	27164	253.281600629049	0.44790381988948
20	27218	253.729504448938	0.50467866895137
20	27262	254.234183117889	1.1541565223057
20	27425	255.388339640195	0.19143154740451
20	27448	255.5797711876	3.2463722509231
20	27758	258.826143438523	5.0460112906686
20	28249	263.872154729192	3.6348148381475
20	28644	267.50696956734	2.7256449037938
20	28901	270.232614471134	4.8382754868974
20	29349	275.070889958031	5.0334354641547
20	29800	280.104325422186	1.0668895717562
20	29937	281.171214993942	0.10001470828017
20	29951	281.271229702222	1.1958624421757
20	30015	282.467092144398	0.90162366237452
20	30108	283.368715806773	0.93367997104752
20	30177	284.302395777821	6.6369404498403
20	30874	290.939336227661	5.8786705532355
20	31457	296.818006780896	5.0522684643934
20	31936	301.870275245289	1.7832473079068
20	32159	303.653522553196	8.1368224326618
20	33186	311.790344985858	0.5354753308707
20	33288	312.325820316729	0.5411061216393
20	33350	312.866926438368	15.311980447493
20	34965	328.178906885861	8.8814227686225
20	35962	337.060329654484	0.24351499990319
20	35971	337.303844654387	0.50124129729947
20	36013	337.805085951686	7.5057297757077
20	36814	345.310815727394	2.8802886636979
20	37178	348.191104391092	2.3176904791686
20	37435	350.508794870261	1.525385371256
20	37583	352.034180241517	2.121511326942
20	37818	354.155691568459	0.33540456353451
20	37858	354.491096131994	1.9748447787734
20	38092	356.465940910767	0.60890453552296
20	38177	357.07484544629	0.57070039793436
20	38266	357.645545844224	3.5334952933369
20	38637	361.179041137561	0.48128438397956
20	38677	361.660325521541	1.176241800401
20	38852	362.836567321942	2.5057599433813
20	39183	365.342327265323	5.5558009458411
20	39918	370.898128211164	3.0049351605205
20	40264	373.903063371685	3.8744381040504
20	40659	377.777501475735	1.3480534077975
20	40835	379.125554883532	1.0606387044659
20	40904	380.186193587998	3.2480310746479
20	41222	383.434224662646	8.0339835996567
20	42091	391.468208262303	0.0087972658683986
20	42092	391.477005528171	0.24099084246274
20	42120	391.717996370634	1.088780845649
20	42209	392.806777216283	1.274993316602
20	42352	394.081770532885	1.1478195990524
20	42535	395.229590131937	0.22886339077148
20	42552	395.458453522708	0.22574099719209
20	42592	395.6841945199	0.012897523926664
20	42596	395.697092043827	1.1856757976145
20	42713	396.882767841441	3.5712934150122
21	1506	14.897046058161	2.6098228335908
21	1744	17.506868891752	1.5717061199055
21	1928	19.078575011658	4.1275035123373
21	2335	23.206078523995	4.3252630624376
21	2786	27.531341586433	7.6963863175008
21	3585	35.227727903934	1.9543464630767
21	3823	37.182074367011	0.26395524215092
21	3837	37.446029609162	3.9644341242221
21	4299	41.410463733384	3.469573892514
21	4606	44.880037625898	1.6980614874463
21	4788	46.578099113344	1.3241017917959
21	4918	47.90220090514	3.2167554434767
21	5224	51.118956348617	1.6043107293936
21	5402	52.723267078011	0.46795598682289
21	5448	53.191223064834	3.9297467001517
21	5864	57.120969764986	0.069037405052778
21	5870	57.190007170039	4.3401304499157
21	6377	61.530137619955	0.51432632860005
21	6444	62.044463948555	0.79228046331455
21	6526	62.83674441187	0.15515404082799
21	6535	62.991898452698	0.12279326665854
21	6546	63.114691719357	1.0885738978707
21	6654	64.203265617228	2.8289470603828
21	6990	67.032212677611	1.1442387849913
21	7091	68.176451462602	1.0702223818137
21	7202	69.246673844416	3.7423572307692
21	7616	72.989031075185	0.26372559971742
21	7635	73.252756674902	1.2452802117543
21	7810	74.498036886656	0.68620303297194
21	7914	75.184239919628	3.3811071381264
21	8293	78.565347057754	7.5367758648392
21	9139	86.102122922593	1.1478709414452
21	9262	87.249993864038	1.213637940263
21	9350	88.463631804301	3.2501347668313
21	9692	91.713766571132	5.5657517314638
21	10299	97.279518302596	0.42577936271378
21	10377	97.70529766531	0.77512489084559
21	10488	98.480422556156	0.47678167638021
21	10548	98.957204232536	1.2059422263846
21	10656	100.163146458921	2.8647767299847
21	11012	103.027923188906	6.3624608372274
21	11660	109.390384026133	0.01546370219765
21	11661	109.405847728331	1.0078188552658
21	11809	110.413666583597	3.3964276828387
21	12241	113.810094266436	7.9368020972099
21	13041	121.746896363646	1.2162997905778
21	13189	122.963196154224	0.19748207816991
21	13207	123.160678232394	2.4150404387729
21	13473	125.575718671167	3.7166916011072
21	13866	129.292410272274	3.0117030250783
21	14203	132.304113297352	0.27755697196114
21	14227	132.581670269313	1.3517564442932
21	14364	133.933426713606	1.4466307703068
21	14539	135.380057483913	0.19642248159537
21	14555	135.576479965508	0.22404176940504
21	14613	135.800521734913	0.98763608546779
21	14742	136.788157820381	3.479903173115
21	15079	140.268060993496	3.3033891194896
21	15512	143.571450112986	0.72092008482308
21	15594	144.292370197809	2.0862480268304
21	15830	146.378618224639	0.27470794944063
21	15861	146.65332617408	0.84201034771756
21	15976	147.495336521798	0.17517876889967
21	15978	147.670515290698	0.41203507742377
21	16027	148.082550368122	0.78481058032563
21	16115	148.867360948448	2.1678897976018
21	16350	151.03525074605	3.3886488137895
21	16743	154.423899559839	0.50881860577252
21	16816	154.932718165612	5.6378346384092
21	17415	160.570552804021	0.041714347797314
21	17421	160.612267151818	0.8022537789987
21	17507	161.414520930817	2.3821923378176
21	17757	163.796713268635	1.1444702955176
21	17853	164.941183564153	1.3979730504944
21	17989	166.339156614647	1.5732093233758
21	18178	167.912365938023	1.4171759882179
21	18364	169.329541926241	1.1867352598155
21	18487	170.516277186056	1.6247250703294
21	18655	172.141002256385	2.3941221101243
21	18850	174.535124366509	1.2254878269218
21	18988	175.760612193431	2.1365842547368
21	19195	177.897196448168	0.62291908460875
21	19267	178.520115532777	0.33312841602162
21	19288	178.853243948799	3.6810836000083
21	19585	182.534327548807	0.60226476939199
21	19660	183.136592318199	2.5220874241536
21	19945	185.658679742353	2.0750621851617
21	20189	187.733741927515	0.11700591314269
21	20198	187.850747840658	1.3940486290842
21	20313	189.244796469742	0.3754282116982
21	20385	189.62022468144	0.3025118357247
21	20426	189.922736517165	0.19836875358447
21	20457	190.121105270749	1.201586667531
21	20572	191.32269193828	1.574045793719
21	20782	192.896737731999	0.53136425552404
21	20842	193.428101987523	0.54412437920156
21	20900	193.972226366725	4.6337085650242
21	21362	198.605934931749	0.66513370956122
21	21472	199.27106864131	3.6741616684259
21	21833	202.945230309736	9.5567492800894
21	22774	212.501979589825	0.21155050900694
21	22796	212.713530098832	2.1016679369422
21	23000	214.815198035774	1.5073442406453
21	23120	216.322542276419	1.750355335307
21	23363	218.072897611726	4.2973950829733
21	23882	222.370292694699	1.1678502193995
21	23997	223.538142914099	2.5418293911903
21	24278	226.079972305289	4.6027282761829
21	24785	230.682700581472	5.3202464644932
21	25383	236.002947045965	0.024263849500947
21	25384	236.027210895466	0.33554279270143
21	25419	236.362753688167	1.2532773731469
21	25519	237.616031061314	0.75714186601269
21	25601	238.373172927327	0.55908799583778
21	25678	238.932260923165	0.20688283889501
21	25691	239.13914376206	1.4644745739421
21	25807	240.603618336002	0.94782875915327
21	25894	241.551447095155	6.5813485678935
21	26600	248.132795663048	5.3119861997778
21	27191	253.444781862826	2.329288120242
21	27466	255.774069983068	0.61862810619358
21	27538	256.392698089262	0.70272016426028
21	27578	257.095418253522	0.11174544212134
21	27591	257.207163695643	6.0306692440262
21	28194	263.237832939669	4.3082762454189
21	28652	267.546109185088	0.65080145973546
21	28739	268.196910644823	1.0594727232612
21	28822	269.256383368084	5.9060685876178
21	29352	275.162451955702	2.293901337159
21	29536	277.456353292861	5.0229623646423
21	30016	282.479315657503	6.5111273195474
21	30670	288.99044297705	4.4899543505443
21	31118	293.480397327594	0.52820370783685
21	31160	294.008601035431	3.2588121811915
21	31494	297.267413216623	0.23756915636485
21	31518	297.504982372988	6.5180737936792
21	32221	304.023056166667	3.2740869037929
21	32683	307.29714307046	1.322801925856
21	32830	308.619944996316	3.6009352096062
21	33271	312.220880205922	3.9059610073973
21	33757	316.126841213319	0.19619655248565
21	33774	316.323037765805	2.4291338071504
21	33987	318.752171572955	10.520491226597
21	35072	329.272662799552	2.7249729467263
21	35405	331.997635746278	1.8207253117239
21	35617	333.818361058002	0.059734645897352
21	35627	333.878095703899	0.41262060565769
21	35662	334.290716309557	6.3061313131313
21	36304	340.596847622688	2.5395572765753
21	36557	343.136404899263	0.19514893982539
21	36573	343.331553839088	2.1855286783215
21	36840	345.517082517409	0.39043370518224
21	36877	345.907516222591	4.4138162081252
21	37419	350.321332430716	0.77952577671705
21	37507	351.100858207433	5.4317368372168
21	38095	356.53259504465	0.29780596488704
21	38131	356.830401009537	0.89899222737698
21	38278	357.729393236914	0.22738372884181
21	38292	357.956776965756	2.709045489873
21	38582	360.665822455629	2.7779597348144
21	38935	363.443782190443	3.3977213033296
21	39359	366.841503493773	4.4612230669077
21	39974	371.302726560681	1.1683540224699
21	40111	372.471080583151	6.424826338814
21	40801	378.895906921965	5.6538498999896
21	41366	384.549756821955	4.5711773986757
21	41857	389.120934220631	0.63365298479953
21	41931	389.754587205431	2.1838843727988
21	42137	391.93847157823	1.201073700099
21	42236	393.139545278329	0.45087340064028
21	42279	393.590418678969	3.9299827045721
21	42781	397.520401383541	2.7892582359725

