version 2
run Nonmonitoring-exponential-505-20210224-17:49:26-27046
attr configname Nonmonitoring-exponential
attr datetime 20210224-17:49:26
attr experiment Nonmonitoring-exponential
attr inifile aerocom.ini
attr iterationvars $0=50
attr iterationvarsf 50-
attr measurement $0=50
attr network Aerocom
attr processid 27046
attr repetition 5
attr replication #5
attr resultdir results
attr runnumber 505
attr seedset 5
param **.t 2s
param **.k 50ms
param **.X 0.05s
param **.m 1s
param **.tDistribution "\"exponential\""
param **.operationMode 1
param **.s "70 byte"
param **.dimPoolMax 10000
param **.dimPoolMin 8000
param **.nDL 16
param **.nA 1
param **.DLMaxCapacity 0
param **.trasmitting false

vector 0 Aerocom.aircraft[0].packetGenerator arrivalTime:vector ETV
attr "" ""
attr source computeArrivalTime
vector 1 Aerocom.aircraft[0].linkSelector waitingTime:vector ETV
attr "" ""
attr source computeWaitingTime
vector 2 Aerocom.aircraft[0].linkSelector queueLength:vector ETV
attr "" ""
attr source computeQueueLength
vector 3 Aerocom.aircraft[0].dataLink[6] actualCapacity:vector ETV
attr "" ""
attr source computeActualCapacity
vector 4 Aerocom.aircraft[0].linkSelector serviceTime:vector ETV
attr "" ""
attr source computeServiceTime
vector 5 Aerocom.aircraft[0].linkSelector responseTime:vector ETV
attr "" ""
attr source computeResponseTime
vector 6 Aerocom.aircraft[0].dataLink[5] tDistribution:vector ETV
attr "" ""
attr source computeTDistribution
vector 7 Aerocom.aircraft[0].dataLink[9] tDistribution:vector ETV
attr "" ""
attr source computeTDistribution
vector 8 Aerocom.aircraft[0].dataLink[3] tDistribution:vector ETV
attr "" ""
attr source computeTDistribution
vector 9 Aerocom.aircraft[0].dataLink[2] tDistribution:vector ETV
attr "" ""
attr source computeTDistribution
vector 10 Aerocom.aircraft[0].dataLink[7] tDistribution:vector ETV
attr "" ""
attr source computeTDistribution
vector 11 Aerocom.aircraft[0].dataLink[6] tDistribution:vector ETV
attr "" ""
attr source computeTDistribution
vector 12 Aerocom.aircraft[0].dataLink[14] tDistribution:vector ETV
attr "" ""
attr source computeTDistribution
vector 13 Aerocom.aircraft[0].dataLink[13] tDistribution:vector ETV
attr "" ""
attr source computeTDistribution
vector 14 Aerocom.aircraft[0].dataLink[0] tDistribution:vector ETV
attr "" ""
attr source computeTDistribution
vector 15 Aerocom.aircraft[0].dataLink[12] tDistribution:vector ETV
attr "" ""
attr source computeTDistribution
vector 16 Aerocom.aircraft[0].dataLink[1] tDistribution:vector ETV
attr "" ""
attr source computeTDistribution
vector 17 Aerocom.aircraft[0].dataLink[11] tDistribution:vector ETV
attr "" ""
attr source computeTDistribution
vector 18 Aerocom.aircraft[0].dataLink[10] tDistribution:vector ETV
attr "" ""
attr source computeTDistribution
vector 19 Aerocom.aircraft[0].dataLink[8] tDistribution:vector ETV
attr "" ""
attr source computeTDistribution
vector 20 Aerocom.aircraft[0].dataLink[15] tDistribution:vector ETV
attr "" ""
attr source computeTDistribution
vector 21 Aerocom.aircraft[0].dataLink[4] tDistribution:vector ETV
attr "" ""
attr source computeTDistribution
0	1141	10.044026519452	0.137649076211
0	1146	10.181675595663	0.058842881286
0	1152	10.240518476949	0.045694638845
0	1157	10.286213115794	0.05647439742
0	1162	10.342687513214	0.007499226821
0	1167	10.350186740035	0.065262609272
0	1172	10.415449349307	0.056718407511
0	1178	10.472167756818	0.004483283156
0	1180	10.476651039974	0.039520257888
0	1188	10.516171297862	0.052596007096
0	1193	10.568767304958	0.000454276749
0	1195	10.569221581707	0.04695862789
0	1205	10.616180209597	0.07453171192
0	1210	10.690711921517	0.019584464969
0	1216	10.710296386486	0.006472671901
0	1218	10.716769058387	0.009201405505
0	1226	10.725970463892	0.036427749299
0	1231	10.762398213191	0.017594025793
0	1236	10.779992238984	0.054793654528
0	1241	10.834785893512	5.4661168e-05
0	1243	10.83484055468	0.071966372505
0	1252	10.906806927185	0.014295132232
0	1257	10.921102059417	0.141408349534
0	1265	11.062510408951	0.058166958352
0	1270	11.120677367303	0.006618749676
0	1272	11.127296116979	0.010944306078
0	1280	11.138240423057	0.011785846591
0	1285	11.150026269648	0.094769898174
0	1291	11.244796167822	0.0227354751
0	1296	11.267531642922	0.09711836323
0	1302	11.364650006152	0.025648771438
0	1307	11.39029877759	0.061394009963
0	1312	11.451692787553	0.044580572158
0	1317	11.496273359711	0.038551606307
0	1322	11.534824966018	0.255094011367
0	1328	11.789918977385	0.001245625126
0	1330	11.791164602511	0.047274247196
0	1339	11.838438849707	0.053859779375
0	1345	11.892298629082	0.057446042777
0	1350	11.949744671859	0.111831816126
0	1356	12.061576487985	0.005057984088
0	1359	12.066634472073	0.012685225109
0	1367	12.079319697182	0.028459974728
0	1373	12.10777967191	0.053868872069
0	1380	12.161648543979	0.006914775948
0	1382	12.168563319927	0.050328685798
0	1390	12.218892005725	0.012129276892
0	1395	12.231021282617	0.081393655706
0	1401	12.312414938323	0.094877985184
0	1406	12.407292923507	0.262145128987
0	1415	12.669438052494	0.023100919709
0	1420	12.692538972203	0.001609960655
0	1422	12.694148932858	0.012952300119
0	1427	12.707101232977	0.032716905893
0	1435	12.73981813887	0.098281593991
0	1440	12.838099732861	0.058732840662
0	1446	12.896832573523	0.0313446423
0	1452	12.928177215823	0.022528988936
0	1457	12.950706204759	0.056678353883
0	1463	13.007384558642	0.009766178294
0	1468	13.017150736936	0.023730790889
0	1473	13.040881527825	0.005783846262
0	1475	13.046665374087	0.063015440531
0	1483	13.109680814618	0.002751304585
0	1485	13.112432119203	0.022708071848
0	1494	13.135140191051	0.038804488495
0	1499	13.173944679546	0.040094767991
0	1505	13.214039447537	0.051306250623
0	1511	13.26534569816	0.044126926804
0	1516	13.309472624964	0.150822235646
0	1522	13.46029486061	0.006130327355
0	1524	13.466425187965	2.9413495e-05
0	1526	13.46645460146	0.008690042816
0	1534	13.475144644276	0.170831235778
0	1543	13.645975880054	0.068410588152
0	1548	13.714386468206	0.016137185343
0	1553	13.730523653549	0.031965317906
0	1558	13.762488971455	0.001290305591
0	1560	13.763779277046	0.049740043779
0	1568	13.813519320825	0.011254973507
0	1573	13.824774294332	0.083569307117
0	1578	13.908343601449	0.047732287994
0	1583	13.956075889443	0.003414001847
0	1585	13.95948989129	0.062538572961
0	1593	14.022028464251	0.017827955757
0	1598	14.039856420008	0.214319141577
0	1605	14.254175561585	0.048852759309
0	1610	14.303028320894	0.030646281698
0	1615	14.333674602592	0.033980711753
0	1621	14.367655314345	0.064838233911
0	1627	14.432493548256	0.077846952866
0	1632	14.510340501122	0.123908867576
0	1637	14.634249368698	0.091252349414
0	1643	14.725501718112	0.021872527138
0	1648	14.74737424525	0.071622500933
0	1653	14.818996746183	0.010050127651
0	1658	14.829046873834	0.006476489704
0	1660	14.835523363538	0.061223375443
0	1668	14.896746738981	0.174900912367
0	1673	15.071647651348	0.040194923193
0	1678	15.111842574541	0.099684931681
0	1684	15.211527506222	0.293712232289
0	1690	15.505239738511	0.005228627872
0	1692	15.510468366383	0.0012692965
0	1694	15.511737662883	0.020977314265
0	1705	15.532714977148	0.154712963662
0	1710	15.68742794081	0.001839789404
0	1712	15.689267730214	0.110691433265
0	1721	15.799959163479	0.044196124383
0	1729	15.844155287862	0.038776160138
0	1734	15.882931448	0.079822505213
0	1740	15.962753953213	0.0439096968
0	1745	16.006663650013	0.173900229789
0	1751	16.180563879802	0.04786180176
0	1757	16.228425681562	0.17289672669
0	1762	16.401322408252	0.01836617654
0	1767	16.419688584792	0.004116363923
0	1769	16.423804948715	0.048172602967
0	1777	16.471977551682	0.010212592485
0	1782	16.482190144167	0.074613712898
0	1787	16.556803857065	0.107508539294
0	1793	16.664312396359	0.143556484204
0	1799	16.807868880563	0.068229330119
0	1804	16.876098210682	0.004372286958
0	1806	16.88047049764	0.009137057203
0	1811	16.889607554843	0.000193435837
0	1813	16.88980099068	0.028858004599
0	1824	16.918658995279	0.011174370405
0	1829	16.929833365684	0.035939398823
0	1835	16.965772764507	0.031770182717
0	1840	16.997542947224	0.012255506658
0	1845	17.009798453882	0.006036810676
0	1847	17.015835264558	0.005359410954
0	1852	17.021194675512	0.03629239444
0	1860	17.057487069952	0.014315146262
0	1865	17.071802216214	0.003437901395
0	1867	17.075240117609	0.169978419542
0	1876	17.245218537151	0.00437913463
0	1878	17.249597671781	0.086255487441
0	1886	17.335853159222	0.066138487311
0	1892	17.401991646533	0.028556755783
0	1897	17.430548402316	0.03287567074
0	1902	17.463424073056	0.087958515051
0	1907	17.551382588107	0.162514133219
0	1913	17.713896721326	0.002435200266
0	1915	17.716331921592	0.069808925261
0	1924	17.786140846853	0.073451905568
0	1929	17.859592752421	0.016439485314
0	1934	17.876032237735	0.16848720689
0	1939	18.044519444625	0.146146779745
0	1951	18.19066622437	0.001567987323
0	1953	18.192234211693	0.200167932366
0	1963	18.392402144059	0.044689295667
0	1969	18.437091439726	0.01515973415
0	1975	18.452251173876	0.068982985734
0	1980	18.52123415961	0.036329002371
0	1985	18.557563161981	0.011059182499
0	1990	18.56862234448	0.01909644762
0	1996	18.5877187921	0.030098277435
0	2001	18.617817069535	0.117097848142
0	2007	18.734914917677	0.014569047207
0	2012	18.749483964884	0.037315459653
0	2018	18.786799424537	0.084983577119
0	2025	18.871783001656	0.023315138909
0	2030	18.895098140565	0.15065491196
0	2035	19.045753052525	0.067135111072
0	2041	19.112888163597	0.01520735061
0	2046	19.128095514207	0.000567484396
0	2048	19.128662998603	0.007149874252
0	2050	19.135812872855	0.022390529985
0	2061	19.15820340284	0.009188458475
0	2066	19.167391861315	0.038051485253
0	2072	19.205443346568	0.026415435164
0	2077	19.231858781732	0.034043941768
0	2082	19.2659027235	0.03310298469
0	2087	19.29900570819	0.003526388236
0	2089	19.302532096426	0.007896546833
0	2094	19.310428643259	0.032206611982
0	2102	19.342635255241	0.063213305987
0	2108	19.405848561228	0.047925417547
0	2113	19.453773978775	0.023090198155
0	2118	19.47686417693	0.056197158847
0	2123	19.533061335777	0.008631246419
0	2128	19.541692582196	0.015455615728
0	2133	19.557148197924	0.046197018117
0	2139	19.603345216041	0.007425602486
0	2142	19.610770818527	0.018708609227
0	2150	19.629479427754	0.107953688383
0	2155	19.737433116137	0.127667041135
0	2162	19.865100157272	0.076589644462
0	2168	19.941689801734	0.073309751868
0	2173	20.014999553602	0.017688591541
0	2178	20.032688145143	0.038916160284
0	2183	20.071604305427	0.039447388487
0	2188	20.111051693914	0.015616791669
0	2193	20.126668485583	0.099189398741
0	2199	20.225857884324	0.066031083848
0	2204	20.291888968172	0.1783645987
0	2210	20.470253566872	0.000367926001
0	2212	20.470621492873	0.027254160974
0	2221	20.497875653847	0.113211768415
0	2227	20.611087422262	0.322747729562
0	2238	20.933835151824	0.011735959939
0	2243	20.945571111763	0.023067139029
0	2249	20.968638250792	0.092044386524
0	2255	21.060682637316	0.012341223925
0	2260	21.073023861241	0.033460462543
0	2265	21.106484323784	0.011890175555
0	2270	21.118374499339	0.107969303498
0	2275	21.226343802837	0.041649639334
0	2280	21.267993442171	0.033477889254
0	2286	21.301471331425	0.006940369954
0	2289	21.308411701379	0.034111405817
0	2297	21.342523107196	0.065022920428
0	2302	21.407546027624	0.011749430883
0	2307	21.419295458507	0.177472198165
0	2312	21.596767656672	0.015203320504
0	2317	21.611970977176	0.135448634247
0	2322	21.747419611423	0.0488353899
0	2327	21.796255001323	0.009442361
0	2332	21.805697362323	0.030365057248
0	2337	21.836062419571	0.047823574413
0	2343	21.883885993984	0.119761567865
0	2349	22.003647561849	0.038199885831
0	2354	22.04184744768	0.040483189832
0	2359	22.082330637512	0.06455817755
0	2364	22.146888815062	0.0607178056
0	2369	22.207606620662	0.06172823911
0	2374	22.269334859772	0.011482920835
0	2380	22.280817780607	0.044444169874
0	2386	22.325261950481	0.015358626235
0	2393	22.340620576716	0.054616926366
0	2398	22.395237503082	0.026976118442
0	2403	22.422213621524	0.027092540858
0	2408	22.449306162382	0.001323558093
0	2410	22.450629720475	0.098532638783
0	2418	22.549162359258	0.061726398338
0	2423	22.610888757596	0.077548646796
0	2428	22.688437404392	0.027217247665
0	2433	22.715654652057	0.04597538101
0	2438	22.761630033067	0.001012311371
0	2440	22.762642344438	0.075766424872
0	2448	22.83840876931	0.056644850051
0	2453	22.895053619361	0.014473573532
0	2458	22.909527192893	0.022701692625
0	2463	22.932228885518	0.006911521592
0	2465	22.93914040711	0.012767168694
0	2473	22.951907575804	0.010598347803
0	2478	22.962505923607	0.035565659875
0	2483	22.998071583482	0.007642916193
0	2485	23.005714499675	0.007799382786
0	2490	23.013513882461	0.011293155851
0	2498	23.024807038312	0.141540902065
0	2503	23.166347940377	0.001271834365
0	2505	23.167619774742	0.000803238951
0	2507	23.168423013693	0.124574716642
0	2519	23.292997730335	0.065078086299
0	2526	23.358075816634	0.043961511687
0	2532	23.402037328321	0.097785542083
0	2537	23.499822870404	0.023653397965
0	2542	23.523476268369	0.103086054845
0	2550	23.626562323214	0.159203659739
0	2559	23.785765982953	0.03758189912
0	2564	23.823347882073	0.080921920711
0	2570	23.904269802784	0.026247138319
0	2575	23.930516941103	0.049192997631
0	2580	23.979709938734	0.067846211175
0	2585	24.047556149909	0.059530028672
0	2590	24.107086178581	0.080576943726
0	2595	24.187663122307	0.090962246031
0	2601	24.278625368338	0.015700106852
0	2606	24.29432547519	0.103679512671
0	2612	24.398004987861	0.015338909717
0	2617	24.413343897578	0.014874545258
0	2622	24.428218442836	0.014235176282
0	2627	24.442453619118	0.067392079716
0	2632	24.509845698834	0.098351848152
0	2638	24.608197546986	0.059848158766
0	2643	24.668045705752	0.147394404438
0	2649	24.81544011019	0.172099957997
0	2656	24.987540068187	0.008362465835
0	2661	24.995902534022	0.027856230216
0	2666	25.023758764238	0.1453762975
0	2671	25.169135061738	0.073506264169
0	2677	25.242641325907	0.034990424582
0	2682	25.277631750489	0.000359620434
0	2684	25.277991370923	0.019455449469
0	2692	25.297446820392	0.065527116427
0	2699	25.362973936819	0.071346832493
0	2705	25.434320769312	0.026955214658
0	2710	25.46127598397	0.129833468236
0	2716	25.591109452206	0.097592750764
0	2722	25.68870220297	0.015090229238
0	2727	25.703792432208	0.081797006431
0	2732	25.785589438639	0.004309714682
0	2734	25.789899153321	0.051548177971
0	2742	25.841447331292	0.002750700594
0	2744	25.844198031886	0.014247708687
0	2752	25.858445740573	0.08177019704
0	2757	25.940215937613	0.012520020538
0	2762	25.952735958151	0.018678610338
0	2768	25.971414568489	0.016830227178
0	2773	25.988244795667	0.052500525165
0	2779	26.040745320832	0.019991623748
0	2784	26.06073694458	0.009402083744
0	2789	26.070139028324	0.004678177173
0	2791	26.074817205497	0.080499623322
0	2800	26.155316828819	0.029279450382
0	2805	26.184596279201	0.025750748263
0	2810	26.210347027464	0.01913735149
0	2815	26.229484378954	0.00311543249
0	2817	26.232599811444	0.098952820035
0	2827	26.331552631479	0.046120447897
0	2832	26.377673079376	0.016910762174
0	2838	26.39458384155	0.009574899174
0	2843	26.404158740724	0.002969604491
0	2845	26.407128345215	0.028067715841
0	2853	26.435196061056	0.117746623246
0	2858	26.552942684302	0.027104119813
0	2863	26.580046804115	0.015248010905
0	2868	26.59529481502	0.131737262323
0	2874	26.727032077343	0.146448410905
0	2879	26.873480488248	0.131809268852
0	2885	27.0052897571	0.015213597406
0	2890	27.020503354506	0.018666247969
0	2896	27.039169602475	0.110765754567
0	2901	27.149935357042	0.014426972674
0	2907	27.164362329716	0.007217941017
0	2909	27.171580270733	0.102257863068
0	2918	27.273838133801	0.06366650627
0	2923	27.337504640071	0.057913155605
0	2929	27.395417795676	0.005913305493
0	2931	27.401331101169	0.019349173204
0	2939	27.420680274373	0.014221285686
0	2945	27.434901560059	0.05534275045
0	2951	27.490244310509	0.04071993592
0	2956	27.530964246429	0.140675226773
0	2962	27.671639473202	0.051929919907
0	2967	27.723569393109	0.083929792284
0	2972	27.807499185393	0.051228990328
0	2977	27.858728175721	0.002944959869
0	2979	27.86167313559	0.097975595262
0	2987	27.959648730852	0.192178456686
0	2992	28.151827187538	0.027010719516
0	2997	28.178837907054	0.115490112158
0	3004	28.294328019212	0.097898019534
0	3011	28.392226038746	0.024938627308
0	3016	28.417164666054	0.014394980542
0	3021	28.431559646596	0.111019636891
0	3027	28.542579283487	0.046286153293
0	3033	28.58886543678	0.032111046091
0	3038	28.620976482871	0.0003469973
0	3040	28.621323480171	0.071293283912
0	3049	28.692616764083	0.012482572273
0	3054	28.705099336356	0.08799412477
0	3060	28.793093461126	0.00720285596
0	3062	28.800296317086	0.007256390398
0	3067	28.807552707484	0.024761076974
0	3075	28.832313784458	0.020177956272
0	3081	28.85249174073	0.04374227634
0	3086	28.89623401707	0.002184891943
0	3088	28.898418909013	0.003671498573
0	3090	28.902090407586	0.003598899082
0	3095	28.905689306668	0.046120729742
0	3107	28.95181003641	0.047984688509
0	3113	28.999794724919	0.008593797005
0	3118	29.008388521924	0.04486021407
0	3123	29.053248735994	0.094938691141
0	3128	29.148187427135	0.163414010844
0	3135	29.311601437979	0.004014508175
0	3137	29.315615946154	0.014430589327
0	3145	29.330046535481	0.005325733141
0	3147	29.335372268622	0.136747596051
0	3156	29.472119864673	0.011804002371
0	3161	29.483923867044	0.032233118046
0	3166	29.51615698509	0.050252871576
0	3171	29.566409856666	0.057340649133
0	3176	29.623750505799	0.029372751503
0	3181	29.653123257302	0.002165439363
0	3183	29.655288696665	0.047779718758
0	3191	29.703068415423	0.163138722581
0	3197	29.866207138004	0.059928938058
0	3202	29.926136076062	0.01236670695
0	3207	29.938502783012	0.067026843421
0	3212	30.005529626433	0.015236483661
0	3217	30.020766110094	0.010725137112
0	3222	30.031491247206	0.073913911568
0	3229	30.105405158774	0.044297873546
0	3234	30.14970303232	0.103595903447
0	3239	30.253298935767	0.048210432162
0	3244	30.301509367929	0.241623110771
0	3250	30.5431324787	0.012204662535
0	3255	30.555337141235	0.06160197485
0	3261	30.616939116085	0.050280349651
0	3266	30.667219465736	0.026702472155
0	3272	30.693921937891	0.032289354063
0	3277	30.726211291954	7.2282645e-05
0	3279	30.726283574599	0.059814343089
0	3288	30.786097917688	0.135176852203
0	3293	30.921274769891	0.002726964178
0	3295	30.924001734069	0.098172614656
0	3303	31.022174348725	0.038038516081
0	3309	31.060212864806	0.003692570049
0	3311	31.063905434855	0.040978479052
0	3319	31.104883913907	0.013525964816
0	3324	31.118409878723	0.083298780325
0	3329	31.201708659048	0.066618423152
0	3335	31.2683270822	0.10313283873
0	3340	31.37145992093	0.015074370055
0	3345	31.386534290985	0.019940207783
0	3350	31.406474498768	0.00917929443
0	3355	31.415653793198	0.168828719772
0	3361	31.58448251297	0.183817392755
0	3366	31.768299905725	0.002018308838
0	3368	31.770318214563	0.02485220256
0	3376	31.795170417123	0.001593009198
0	3378	31.796763426321	0.01847304403
0	3386	31.815236470351	0.04916288499
0	3391	31.864399355341	0.01302964218
0	3396	31.877428997521	0.013350304093
0	3401	31.890779301614	0.003156344754
0	3403	31.893935646368	0.074778234773
0	3412	31.968713881141	0.03160484031
0	3418	32.000318721451	0.014784118364
0	3424	32.015102839815	0.00120236343
0	3426	32.016305203245	0.066066119448
0	3435	32.082371322693	0.063321105908
0	3440	32.145692428601	0.015857969512
0	3445	32.161550398113	0.022993384674
0	3450	32.184543782787	0.00906156961
0	3455	32.193605352397	0.040068890705
0	3460	32.233674243102	0.017832323045
0	3465	32.251506566147	0.094846934215
0	3470	32.346353500362	0.143856536549
0	3475	32.490210036911	0.037827542752
0	3480	32.528037579663	0.031255782617
0	3485	32.55929336228	0.276914218788
0	3491	32.836207581068	0.014504902781
0	3496	32.850712483849	0.127547096748
0	3502	32.978259580597	0.062041208566
0	3509	33.040300789163	0.039355886482
0	3514	33.079656675645	0.049373250758
0	3519	33.129029926403	0.059539912706
0	3525	33.188569839109	0.037021087025
0	3530	33.225590926134	0.088721203151
0	3535	33.314312129285	0.051740204143
0	3540	33.366052333428	0.012400720515
0	3545	33.378453053943	0.066984808052
0	3552	33.445437861995	0.028822006335
0	3557	33.47425986833	0.054551982777
0	3562	33.528811851107	0.107831845225
0	3567	33.636643696332	0.01541003834
0	3572	33.652053734672	0.002558310344
0	3574	33.654612045016	0.012135910438
0	3579	33.666747955454	0.038486872257
0	3587	33.705234827711	0.006146578274
0	3589	33.711381405985	0.014693808796
0	3597	33.726075214781	0.040743750183
0	3602	33.766818964964	0.025403616599
0	3607	33.792222581563	0.070217365007
0	3614	33.86243994657	0.013224559384
0	3619	33.875664505954	0.067569769988
0	3625	33.943234275942	0.047375426647
0	3630	33.990609702589	0.003499810674
0	3632	33.994109513263	0.088428782718
0	3641	34.082538295981	0.062453884628
0	3647	34.144992180609	0.129307681469
0	3652	34.274299862078	0.007371139732
0	3654	34.28167100181	0.008059000521
0	3659	34.289730002331	0.118256061762
0	3668	34.407986064093	0.122582200379
0	3675	34.530568264472	0.019392186109
0	3680	34.549960450581	0.074001376926
0	3685	34.623961827507	0.043337318178
0	3690	34.667299145685	0.075690503232
0	3697	34.742989648917	0.067432112747
0	3704	34.810421761664	0.075819418911
0	3709	34.886241180575	0.052488070525
0	3714	34.9387292511	0.015903845082
0	3719	34.954633096182	0.167866723681
0	3727	35.122499819863	0.019115585926
0	3732	35.141615405789	0.053357856295
0	3737	35.194973262084	0.030647045438
0	3742	35.225620307522	0.033103086392
0	3748	35.258723393914	0.004332632809
0	3750	35.263056026723	0.051295393524
0	3758	35.314351420247	0.035965139539
0	3764	35.350316559786	0.050754559589
0	3769	35.401071119375	0.052335063254
0	3775	35.453406182629	0.012899675494
0	3780	35.466305858123	0.00886448548
0	3785	35.475170343603	0.023657020606
0	3790	35.498827364209	0.002970395567
0	3792	35.501797759776	0.08053422219
0	3801	35.582331981966	0.10551215134
0	3807	35.687844133306	0.059590572188
0	3812	35.747434705494	0.037658055478
0	3819	35.785092760972	0.093245237433
0	3825	35.878337998405	0.016525484113
0	3830	35.894863482518	0.035843693622
0	3836	35.93070717614	0.075716565177
0	3841	36.006423741317	0.059155454764
0	3846	36.065579196081	0.037000181649
0	3852	36.10257937773	0.014456797366
0	3857	36.117036175096	0.032804732625
0	3863	36.149840907721	0.000316380468
0	3865	36.150157288189	0.007545647506
0	3871	36.157702935695	0.029259661107
0	3880	36.186962596802	0.013646263466
0	3885	36.200608860268	0.063801073161
0	3890	36.264409933429	0.01962123089
0	3895	36.284031164319	0.021909053966
0	3900	36.305940218285	0.060096925229
0	3905	36.366037143514	0.003915113913
0	3907	36.369952257427	0.013390396144
0	3915	36.383342653571	0.084864140588
0	3921	36.468206794159	0.028551993768
0	3926	36.496758787927	0.069772680655
0	3931	36.566531468582	0.154145811484
0	3936	36.720677280066	0.161555181596
0	3942	36.882232461662	0.164151336074
0	3947	37.046383797736	0.083664247791
0	3952	37.130048045527	0.016065092965
0	3957	37.146113138492	0.016893253907
0	3962	37.163006392399	0.07251201647
0	3967	37.235518408869	0.169547499794
0	3972	37.405065908663	0.134716582469
0	3979	37.539782491132	0.04460506727
0	3984	37.584387558402	0.037333681256
0	3989	37.621721239658	0.052952491611
0	3994	37.674673731269	0.05032489115
0	4000	37.724998622419	0.120641310227
0	4005	37.845639932646	0.033246307335
0	4010	37.878886239981	0.191929460973
0	4015	38.070815700954	0.014871964115
0	4020	38.085687665069	0.000292503261
0	4022	38.08598016833	0.032055254845
0	4031	38.118035423175	0.040822996836
0	4036	38.158858420011	0.074115354565
0	4044	38.232973774576	0.077238241511
0	4050	38.310212016087	0.069858360795
0	4057	38.380070376882	0.00820570369
0	4062	38.388276080572	0.014829457954
0	4067	38.403105538526	0.07563500845
0	4072	38.478740546976	0.070495353759
0	4078	38.549235900735	0.022870128753
0	4083	38.572106029488	0.022599126092
0	4089	38.59470515558	0.006682326973
0	4091	38.601387482553	0.00376202613
0	4096	38.605149508683	0.055607239854
0	4105	38.660756748537	0.0825182873
0	4112	38.743275035837	0.066791671749
0	4117	38.810066707586	0.137831702954
0	4122	38.94789841054	0.02412071131
0	4127	38.97201912185	0.004878350764
0	4129	38.976897472614	0.063532997326
0	4137	39.04043046994	0.236406758509
0	4144	39.276837228449	0.07769057485
0	4149	39.354527803299	0.023225134938
0	4155	39.377752938237	0.036384865382
0	4160	39.414137803619	0.114205376456
0	4166	39.528343180075	0.014068322639
0	4172	39.542411502714	0.053092090728
0	4177	39.595503593442	0.059496505186
0	4183	39.655000098628	0.073253521795
0	4189	39.728253620423	0.009550368853
0	4194	39.737803989276	0.009257936885
0	4199	39.747061926161	0.020070324629
0	4204	39.76713225079	0.056581958283
0	4209	39.823714209073	0.179198797067
0	4216	40.00291300614	0.034620963828
0	4221	40.037533969968	0.014276019085
0	4227	40.051809989053	0.019698548347
0	4232	40.0715085374	0.040315900484
0	4239	40.111824437884	0.0086211943
0	4244	40.120445632184	0.016841472603
0	4249	40.137287104787	0.121254378319
0	4254	40.258541483106	0.060245558109
0	4259	40.318787041215	0.052793920551
0	4264	40.371580961766	0.046902699895
0	4269	40.418483661661	0.06936624119
0	4274	40.487849902851	0.049762843359
0	4279	40.53761274621	0.056488408107
0	4284	40.594101154317	0.049044766689
0	4289	40.643145921006	0.011152487977
0	4294	40.654298408983	0.026949898704
0	4299	40.681248307687	0.174143176741
0	4306	40.855391484428	0.125904361901
0	4312	40.981295846329	0.025480278034
0	4317	41.006776124363	0.002198423587
0	4319	41.00897454795	0.021618495349
0	4327	41.030593043299	0.043018549344
0	4333	41.073611592643	0.019602328506
0	4338	41.093213921149	0.050045209276
0	4344	41.143259130425	0.094086864993
0	4350	41.237345995418	0.043632374699
0	4355	41.280978370117	0.024195712767
0	4360	41.305174082884	0.017615051532
0	4365	41.322789134416	0.033140793321
0	4370	41.355929927737	0.035237260813
0	4375	41.39116718855	0.001415891412
0	4377	41.392583079962	0.005981105173
0	4379	41.398564185135	0.006675445391
0	4384	41.405239630526	0.017089237102
0	4395	41.422328867628	0.002545720455
0	4397	41.424874588083	0.01318342115
0	4406	41.438058009233	0.022260394406
0	4411	41.460318403639	0.011951461117
0	4416	41.472269864756	0.075864875775
0	4422	41.548134740531	0.002769345416
0	4424	41.550904085947	0.00577918391
0	4429	41.556683269857	0.060129771031
0	4438	41.616813040888	0.086748773316
0	4444	41.703561814204	0.05098970914
0	4449	41.754551523344	0.010249308767
0	4454	41.764800832111	0.115704240768
0	4460	41.880505072879	0.01499364279
0	4465	41.895498715669	0.079882394483
0	4470	41.975381110152	0.084477052741
0	4476	42.059858162893	0.057609888235
0	4482	42.117468051128	0.000809014342
0	4484	42.11827706547	0.064897862323
0	4493	42.183174927793	0.000222067427
0	4495	42.18339699522	0.141958782741
0	4503	42.325355777961	0.100981605532
0	4508	42.426337383493	0.001174194252
0	4510	42.427511577745	0.020947842317
0	4519	42.448459420062	0.023584718051
0	4524	42.472044138113	0.080084981348
0	4530	42.552129119461	0.118892411472
0	4535	42.671021530933	0.000710907498
0	4537	42.671732438431	0.098813873043
0	4545	42.770546311474	0.049524963905
0	4550	42.820071275379	0.064616446443
0	4556	42.884687721822	0.072336144419
0	4561	42.957023866241	0.019523831494
0	4566	42.976547697735	0.000387319891
0	4568	42.976935017626	0.029907303253
0	4576	43.006842320879	0.024353886281
0	4581	43.03119620716	0.076520138682
0	4588	43.107716345842	0.015922781557
0	4594	43.123639127399	0.027328100476
0	4599	43.150967227875	0.067418548222
0	4604	43.218385776097	0.002445919448
0	4606	43.220831695545	0.135283441034
0	4614	43.356115136579	0.211388113326
0	4622	43.567503249905	0.1380378631
0	4629	43.705541113005	0.038700442118
0	4635	43.744241555123	0.000194731975
0	4637	43.744436287098	0.037110364702
0	4646	43.7815466518	0.003434211491
0	4648	43.784980863291	0.019746962292
0	4656	43.804727825583	0.001070475599
0	4658	43.805798301182	0.022703449111
0	4666	43.828501750293	0.08289947133
0	4671	43.911401221623	0.2189949884
0	4677	44.130396210023	0.050492912861
0	4683	44.180889122884	0.006360232492
0	4685	44.187249355376	0.003766408513
0	4690	44.191015763889	0.109656277405
0	4700	44.300672041294	0.054254970272
0	4705	44.354927011566	0.078507888751
0	4712	44.433434900317	0.03622326914
0	4717	44.469658169457	0.123332473768
0	4725	44.592990643225	0.018917185147
0	4731	44.611907828372	0.168325073111
0	4736	44.780232901483	0.063258740868
0	4741	44.843491642351	0.071180464853
0	4746	44.914672107204	0.098862994342
0	4752	45.013535101546	0.036070944305
0	4757	45.049606045851	7.6587451e-05
0	4759	45.049682633302	0.025037276629
0	4769	45.074719909931	0.003754728844
0	4771	45.078474638775	0.027098418282
0	4779	45.105573057057	0.008886420952
0	4784	45.114459478009	0.025813263443
0	4789	45.140272741452	0.066553909851
0	4794	45.206826651303	0.025378496012
0	4799	45.232205147315	0.018300743313
0	4804	45.250505890628	0.072106513946
0	4810	45.322612404574	0.040637901622
0	4816	45.363250306196	0.102885903729
0	4824	45.466136209925	0.129081925322
0	4830	45.595218135247	0.142863072656
0	4835	45.738081207903	0.013001253587
0	4840	45.75108246149	0.015515461008
0	4846	45.766597922498	0.026373148339
0	4851	45.792971070837	0.060312405053
0	4856	45.85328347589	0.027785795844
0	4861	45.881069271734	0.002243872086
0	4864	45.88331314382	0.06857294376
0	4873	45.95188608758	0.031798078554
0	4878	45.983684166134	0.079982728068
0	4884	46.063666894202	0.007338136736
0	4886	46.071005030938	0.061110119839
0	4894	46.132115150777	0.013609747337
0	4899	46.145724898114	0.043046406172
0	4905	46.188771304286	0.097624102056
0	4911	46.286395406342	0.218539350333
0	4919	46.504934756675	0.024192672787
0	4924	46.529127429462	0.052967063057
0	4930	46.582094492519	0.062569650996
0	4935	46.644664143515	0.008400303112
0	4940	46.653064446627	0.054124312763
0	4945	46.70718875939	0.005958281868
0	4947	46.713147041258	0.051037097891
0	4956	46.764184139149	0.041897562097
0	4962	46.806081701246	0.026788224319
0	4967	46.832869925565	0.009528909591
0	4973	46.842398835156	0.009867904361
0	4978	46.852266739517	0.007206767027
0	4980	46.859473506544	0.16814110723
0	4989	47.027614613774	0.017196292179
0	4994	47.044810905953	0.043398378693
0	4999	47.088209284646	0.018456925026
0	5004	47.106666209672	0.133826359088
0	5009	47.24049256876	0.100919215589
0	5015	47.341411784349	0.103366122344
0	5021	47.444777906693	0.004080611689
0	5023	47.448858518382	0.137885127677
0	5032	47.586743646059	0.208550387707
0	5037	47.795294033766	0.10080794655
0	5042	47.896101980316	0.05687221899
0	5047	47.952974199306	0.010489978638
0	5052	47.963464177944	0.013057597284
0	5057	47.976521775228	0.063769732812
0	5062	48.04029150804	0.023298681098
0	5067	48.063590189138	0.196341179252
0	5073	48.25993136839	0.002573941604
0	5075	48.262505309994	0.11577344767
0	5083	48.378278757664	0.021431393927
0	5088	48.399710151591	0.245519375978
0	5095	48.645229527569	0.106642817028
0	5101	48.751872344597	0.007735723214
0	5103	48.759608067811	0.087667111178
0	5111	48.847275178989	0.029589364462
0	5116	48.876864543451	0.009196548933
0	5121	48.886061092384	0.054168258861
0	5128	48.940229351245	0.025943418663
0	5133	48.966172769908	0.019391770252
0	5139	48.98556454016	0.045027934765
0	5145	49.030592474925	0.082016663326
0	5151	49.112609138251	0.046069831508
0	5157	49.158678969759	0.007734849379
0	5159	49.166413819138	0.055532244001
0	5167	49.221946063139	0.03238421735
0	5172	49.254330280489	0.094247191375
0	5178	49.348577471864	0.057305746232
0	5183	49.405883218096	0.072457291437
0	5188	49.478340509533	0.010500123456
0	5193	49.488840632989	0.045553849659
0	5199	49.534394482648	0.025629738965
0	5204	49.560024221613	0.010182016835
0	5209	49.570206238448	0.012723074434
0	5214	49.582929312882	0.004474559308
0	5216	49.58740387219	0.076344426849
0	5225	49.663748299039	0.116508084608
0	5230	49.780256383647	0.013636202758
0	5236	49.793892586405	0.038823178261
0	5241	49.832715764666	0.081739034768
0	5248	49.914454799434	0.101994330246
0	5253	50.01644912968	0.056714204289
0	5258	50.073163333969	0.029658629825
0	5263	50.102821963794	0.005140899747
0	5265	50.107962863541	0.01385513829
0	5273	50.121818001831	0.048118226981
0	5278	50.169936228812	0.022818407152
0	5283	50.192754635964	0.077806936049
0	5290	50.270561572013	0.0215921181
0	5295	50.292153690113	0.012752730915
0	5301	50.304906421028	0.056983048029
0	5306	50.361889469057	0.063978080064
0	5311	50.425867549121	0.014092979296
0	5316	50.439960528417	0.034698096767
0	5321	50.474658625184	0.031189581279
0	5326	50.505848206463	0.045345977254
0	5331	50.551194183717	0.074319353059
0	5336	50.625513536776	0.016480385436
0	5341	50.641993922212	0.020338013975
0	5346	50.662331936187	0.04525540835
0	5351	50.707587344537	0.080278400244
0	5356	50.787865744781	0.065409228764
0	5361	50.853274973545	0.083012122665
0	5368	50.93628709621	0.003548459569
0	5370	50.939835555779	0.024653760237
0	5380	50.964489316016	0.068140855048
0	5386	51.032630171064	0.040206261469
0	5391	51.072836432533	0.000997325027
0	5393	51.07383375756	0.044817666941
0	5401	51.118651424501	0.033339479561
0	5406	51.151990904062	0.012410888479
0	5411	51.164401792541	0.016921083824
0	5416	51.181322876365	0.004416564458
0	5418	51.185739440823	0.09057054987
0	5427	51.276309990693	0.033012469585
0	5434	51.309322460278	0.021611322654
0	5439	51.330933782932	0.026056388194
0	5444	51.356990171126	0.00299485136
0	5446	51.359985022486	0.088672961613
0	5454	51.448657984099	0.014897107553
0	5460	51.463555091652	0.005439579386
0	5462	51.468994671038	0.012733333235
0	5470	51.481728004273	0.092953477943
0	5477	51.574681482216	0.067741091882
0	5482	51.642422574098	0.095587821174
0	5487	51.738010395272	0.008074168279
0	5492	51.746084563551	0.008990064556
0	5497	51.755074628107	0.006385234483
0	5499	51.76145986259	0.002942258453
0	5504	51.764402121043	0.048406019795
0	5512	51.812808140838	0.041182762111
0	5517	51.853990902949	0.002824962595
0	5519	51.856815865544	0.03241444219
0	5527	51.889230307734	0.140985905337
0	5532	52.030216213071	0.033804298221
0	5537	52.064020511292	0.006858994137
0	5539	52.070879505429	0.018864079915
0	5548	52.089743585344	0.008900171916
0	5553	52.09864375726	0.022118621884
0	5558	52.120762379144	0.004321895631
0	5560	52.125084274775	0.008545027921
0	5565	52.133629302696	0.018914914047
0	5573	52.152544216743	0.106361980537
0	5579	52.25890619728	0.063699522711
0	5584	52.322605719991	0.004251773088
0	5586	52.326857493079	0.019215573688
0	5594	52.346073066767	0.00380100297
0	5596	52.349874069737	0.087813740885
0	5605	52.437687810622	0.030559124166
0	5610	52.468246934788	0.003130392389
0	5612	52.471377327177	0.001000246103
0	5614	52.47237757328	0.015344393571
0	5622	52.487721966851	0.001721974715
0	5624	52.489443941566	0.003530364783
0	5629	52.492974306349	0.015803060438
0	5637	52.508777366787	0.041213598532
0	5645	52.549990965319	0.035579631908
0	5650	52.585570597227	0.017355382621
0	5655	52.602925979848	0.043639351961
0	5661	52.646565331809	0.045240005552
0	5666	52.691805337361	0.007862538033
0	5668	52.699667875394	0.000219085676
0	5673	52.69988696107	0.041366056303
0	5681	52.741253017373	0.03713969962
0	5687	52.778392716993	0.011875519629
0	5692	52.790268236622	0.016226449092
0	5697	52.806494685714	0.151514293033
0	5702	52.958008978747	0.086182786976
0	5707	53.044191765723	0.009533790186
0	5712	53.053725555909	0.000951107955
0	5714	53.054676663864	0.014027833168
0	5719	53.068704497032	0.010297239323
0	5727	53.079001736355	0.022622941677
0	5733	53.101624678032	0.114978208954
0	5740	53.216602886986	0.17369203195
0	5746	53.390294918936	0.03249559897
0	5751	53.422790517906	0.003615703831
0	5753	53.426406221737	0.002518305253
0	5755	53.42892452699	0.00419159113
0	5760	53.43311611812	0.005131676874
0	5762	53.438247794994	0.031416647329
0	5776	53.469664442323	0.020874076992
0	5782	53.490538519315	0.035252770532
0	5787	53.525791289847	0.020291638336
0	5793	53.546082928183	0.068330224865
0	5798	53.614413153048	0.00323257563
0	5800	53.617645728678	0.024967604019
0	5808	53.642613332697	0.124675072694
0	5815	53.767288405391	0.056426934884
0	5820	53.823715340275	0.009797843745
0	5825	53.83351318402	0.105527985316
0	5830	53.939041169336	0.032042540933
0	5835	53.971083710269	0.106406675112
0	5840	54.077490385381	0.036407357191
0	5845	54.113897742572	0.032788139781
0	5850	54.146685882353	0.087910735091
0	5855	54.234596617444	0.104219687103
0	5860	54.338816304547	0.018540295151
0	5865	54.357356599698	0.013368360211
0	5870	54.370724959909	0.004009889019
0	5872	54.374734848928	0.083643095269
0	5880	54.458377944197	0.022505652881
0	5885	54.480883597078	0.04688281458
0	5890	54.527766411658	0.104435989553
0	5895	54.632202401211	0.040977046752
0	5900	54.673179447963	0.08868437814
0	5906	54.761863826103	0.013854504471
0	5911	54.775718330574	0.024370555558
0	5916	54.800088886132	0.016029879139
0	5921	54.816118765271	0.053879317593
0	5927	54.869998082864	0.000471184339
0	5929	54.870469267203	0.070303386176
0	5939	54.940772653379	0.00542363204
0	5941	54.946196285419	0.053204358794
0	5950	54.999400644213	0.002461751222
0	5952	55.001862395435	0.031474104215
0	5960	55.03333649965	0.006247246853
0	5962	55.039583746503	0.03500316808
0	5970	55.074586914583	0.028971141684
0	5975	55.103558056267	0.026023296112
0	5981	55.129581352379	0.046326351902
0	5986	55.175907704281	0.054409241577
0	5992	55.230316945858	0.004621802155
0	5994	55.234938748013	0.013552121006
0	6002	55.248490869019	0.022876920834
0	6007	55.271367789853	0.00301833142
0	6009	55.274386121273	0.028010442727
0	6017	55.302396564	0.073287559743
0	6023	55.375684123743	0.016080117975
0	6028	55.391764241718	0.105967980903
0	6034	55.497732222621	0.078980721798
0	6041	55.576712944419	0.009229252813
0	6046	55.585942197232	0.000518901994
0	6048	55.586461099226	0.002026948938
0	6050	55.588488048164	0.0234383859
0	6061	55.611926434064	0.021221973264
0	6066	55.633148407328	0.033492884723
0	6072	55.666641292051	0.085565868392
0	6078	55.752207160443	0.036195236748
0	6083	55.788402397191	0.002294421238
0	6085	55.790696818429	0.106964179664
0	6096	55.897660998093	0.021705038198
0	6101	55.919366036291	0.034509905229
0	6107	55.95387594152	0.014888334772
0	6112	55.968764276292	0.027457550581
0	6117	55.996221826873	7.9040796e-05
0	6119	55.996300867669	0.029507186099
0	6127	56.025808053768	0.021195713103
0	6132	56.047003766871	0.046963862296
0	6137	56.093967629167	0.109155844691
0	6143	56.203123473858	0.069688726057
0	6149	56.272812199915	0.009153168723
0	6154	56.281965368638	0.034901585155
0	6159	56.316866953793	0.055209841031
0	6164	56.372076794824	0.038172664761
0	6169	56.410249459585	0.01340117457
0	6174	56.423650634155	0.028291369807
0	6179	56.451942003962	0.112525037681
0	6185	56.564467041643	0.042677527979
0	6191	56.607144569622	0.049215647819
0	6196	56.656360217441	0.044882284113
0	6201	56.701242501554	0.006808410384
0	6203	56.708050911938	0.050998921432
0	6212	56.75904983337	0.023187736016
0	6218	56.782237569386	0.014590116056
0	6223	56.796827685442	0.035710526301
0	6228	56.832538211743	0.074424851599
0	6233	56.906963063342	0.011906508816
0	6238	56.918869572158	0.030670256863
0	6243	56.949539829021	0.06504060828
0	6248	57.014580437301	0.023328667574
0	6254	57.037909104875	0.129062367821
0	6259	57.166971472696	0.085993831484
0	6265	57.25296530418	0.001270641416
0	6267	57.254235945596	0.005595399653
0	6269	57.259831345249	0.019598866159
0	6280	57.279430211408	0.03140001475
0	6285	57.310830226158	0.044674439172
0	6291	57.35550466533	0.011877174015
0	6296	57.367381839345	0.171145405389
0	6302	57.538527244734	0.007335917045
0	6304	57.545863161779	0.000928420093
0	6309	57.546791581872	0.000612677501
0	6311	57.547404259373	0.010605608305
0	6316	57.558009867678	0.031389645275
0	6327	57.589399512953	0.005241214678
0	6329	57.594640727631	0.036093962235
0	6338	57.630734689866	0.001066244978
0	6340	57.631800934844	0.004290189676
0	6342	57.63609112452	0.171144693
0	6354	57.80723581752	0.026714565335
0	6360	57.833950382855	0.081457083648
0	6366	57.915407466503	0.002101531241
0	6368	57.917508997744	0.044171459417
0	6376	57.961680457161	0.063892189567
0	6381	58.025572646728	0.18633465221
0	6389	58.211907298938	0.022167532547
0	6394	58.234074831485	0.125653477659
0	6401	58.359728309144	0.055739915664
0	6406	58.415468224808	0.034447397856
0	6411	58.449915622664	0.056916948807
0	6417	58.506832571471	0.027614406746
0	6423	58.534446978217	0.04115428891
0	6428	58.575601267127	0.014487345156
0	6433	58.590088612283	0.007739816129
0	6435	58.597828428412	0.029681371668
0	6443	58.62750980008	0.035514747311
0	6449	58.663024547391	0.048990551319
0	6455	58.71201509871	0.000882380198
0	6457	58.712897478908	0.114204713042
0	6466	58.82710219195	0.09342133811
0	6471	58.92052353006	0.184185471036
0	6476	59.104709001096	0.06075100172
0	6481	59.165460002816	0.008584525448
0	6486	59.174044528264	0.065210078076
0	6492	59.23925460634	0.010939522548
0	6498	59.250194128888	0.020371018578
0	6503	59.270565147466	0.010719245026
0	6508	59.281284392492	0.053790141498
0	6514	59.33507453399	0.07063617659
0	6519	59.40571071058	0.055949071955
0	6524	59.461659782535	0.053509473121
0	6529	59.515169255656	0.049120638924
0	6536	59.56428989458	0.06333655201
0	6541	59.62762644659	0.004046946705
0	6543	59.631673393295	0.052433916011
0	6551	59.684107309306	0.00348070509
0	6553	59.687588014396	0.087310799495
0	6561	59.774898813891	0.034695112168
0	6566	59.809593926059	0.007335241883
0	6568	59.816929167942	0.002089917482
0	6573	59.819019085424	0.017080746088
0	6581	59.836099831512	0.008651010086
0	6586	59.844750841598	0.005205866051
0	6588	59.849956707649	0.031284108386
0	6596	59.881240816035	0.065888668486
0	6601	59.947129484521	0.004526711527
0	6603	59.951656196048	0.015556733494
0	6611	59.967212929542	0.019175189371
0	6617	59.986388118913	0.09414568477
0	6622	60.080533803683	0.022677568335
0	6627	60.103211372018	0.005363105447
0	6629	60.108574477465	0.021767700558
0	6637	60.130342178023	0.055035209152
0	6643	60.185377387175	0.001721311301
0	6645	60.187098698476	0.044908682521
0	6653	60.232007380997	0.009480238035
0	6658	60.241487619032	0.04535880045
0	6663	60.286846419482	0.003593753811
0	6665	60.290440173293	0.018900290628
0	6673	60.309340463921	0.058984479193
0	6678	60.368324943114	0.03666356843
0	6685	60.404988511544	0.04620431552
0	6690	60.451192827064	0.063282110915
0	6697	60.514474937979	0.040991773058
0	6702	60.555466711037	0.045430814991
0	6707	60.600897526028	0.010065244351
0	6712	60.610962770379	0.014239645869
0	6717	60.625202416248	0.011099566948
0	6722	60.636301983196	0.091729439414
0	6727	60.72803142261	0.056107737551
0	6732	60.784139160161	0.052578859777
0	6738	60.836718019938	0.040087380203
0	6743	60.876805400141	0.039494968345
0	6748	60.916300368486	0.001291442289
0	6750	60.917591810775	0.003942903818
0	6753	60.921534714593	0.113917780225
0	6767	61.035452494818	0.041735157647
0	6772	61.077187652465	0.020198822934
0	6778	61.097386475399	0.144543379374
0	6783	61.241929854773	0.00680713907
0	6785	61.248736993843	0.033344928329
0	6793	61.282081922172	0.005413464056
0	6795	61.287495386228	0.056611216597
0	6803	61.344106602825	0.042779714775
0	6809	61.3868863176	0.007445072152
0	6814	61.394331389752	0.041478717997
0	6820	61.435810107749	0.006311900861
0	6822	61.44212200861	0.003496767504
0	6827	61.445618776114	0.00025469217
0	6829	61.445873468284	0.018151812195
0	6837	61.464025280479	0.022182047891
0	6845	61.48620732837	0.025981325522
0	6850	61.512188653892	0.045339289197
0	6855	61.557527943089	0.104588239572
0	6860	61.662116182661	0.028109104962
0	6865	61.690225287623	0.134002235509
0	6870	61.824227523132	0.097883766039
0	6875	61.922111289171	0.029887889783
0	6880	61.951999178954	0.005810678729
0	6882	61.957809857683	0.060200145559
0	6891	62.018010003242	0.021621823553
0	6896	62.039631826795	0.023851204675
0	6901	62.06348303147	0.012779834607
0	6906	62.076262866077	0.085329896684
0	6912	62.161592762761	0.096694927617
0	6919	62.258287690378	0.008312222938
0	6924	62.266599913316	0.020584988936
0	6929	62.287184902252	0.05723446838
0	6934	62.344419370632	0.00384856872
0	6936	62.348267939352	0.005085783248
0	6941	62.3533537226	0.000867135746
0	6943	62.354220858346	0.020702331392
0	6954	62.374923189738	0.030044247796
0	6959	62.404967437534	0.027624812906
0	6964	62.43259225044	0.044010007564
0	6969	62.476602258004	0.005031341792
0	6972	62.481633599796	0.037100047698
0	6980	62.518733647494	0.104381178749
0	6986	62.623114826243	0.023887708584
0	6992	62.647002534827	0.067545891235
0	6997	62.714548426062	0.145725529791
0	7003	62.860273955853	0.008122063211
0	7008	62.868396019064	0.117585342089
0	7013	62.985981361153	0.042957754133
0	7018	63.028939115286	0.025628830667
0	7024	63.054567945953	0.015459763647
0	7029	63.0700277096	0.086255314406
0	7034	63.156283024006	0.030400119333
0	7039	63.186683143339	0.011220822888
0	7044	63.197903966227	0.066920787553
0	7049	63.26482475378	0.023785062033
0	7054	63.288609815813	0.02093472705
0	7060	63.309544542863	0.011061551354
0	7066	63.320606094217	0.109905202001
0	7072	63.430511296218	0.023941399062
0	7077	63.45445269528	0.026056604284
0	7082	63.480509299564	0.01043783459
0	7088	63.490947134154	0.106339519278
0	7093	63.597286653432	0.044563495016
0	7099	63.641850148448	0.00667628482
0	7101	63.648526433268	0.003679315639
0	7106	63.652205748907	0.004529910071
0	7108	63.656735658978	0.079454666142
0	7119	63.73619032512	0.03165488962
0	7124	63.76784521474	0.022455659085
0	7129	63.790300873825	0.02296022784
0	7134	63.813261101665	0.046854843024
0	7139	63.860115944689	0.030417211295
0	7145	63.890533155984	0.023695588195
0	7150	63.914228744179	0.089977919479
0	7157	64.004206663658	0.011771411529
0	7162	64.015978075187	0.050585363378
0	7167	64.066563438565	0.030818348383
0	7173	64.097381786948	0.005350849356
0	7175	64.102732636304	0.104974265836
0	7184	64.20770690214	0.046638740808
0	7189	64.254345642948	0.046700007677
0	7194	64.301045650625	0.02613970186
0	7199	64.327185352485	0.032047603639
0	7204	64.359232956124	0.054459411126
0	7209	64.41369236725	0.0400610395
0	7214	64.45375340675	0.009699482261
0	7219	64.463452889011	0.020072754238
0	7224	64.483525643249	0.006635874309
0	7226	64.490161517558	0.068655916839
0	7235	64.558817434397	0.077530563167
0	7241	64.636347997564	0.107018769414
0	7246	64.743366766978	0.03616320658
0	7251	64.779529973558	0.012532872963
0	7256	64.792062846521	0.009606456192
0	7261	64.801669302713	0.123076667165
0	7266	64.924745969878	0.00605732849
0	7268	64.930803298368	0.03756760311
0	7276	64.968370901478	0.010173990808
0	7281	64.978544892286	0.003553729558
0	7283	64.982098621844	0.034614246931
0	7291	65.016712868775	0.04008566994
0	7296	65.056798538715	0.01789736812
0	7301	65.074695906835	0.111681300942
0	7307	65.186377207777	0.019654617302
0	7312	65.206031825079	0.09778746836
0	7317	65.303819293439	0.001827120804
0	7319	65.305646414243	0.038223895566
0	7327	65.343870309809	0.00315307583
0	7329	65.347023385639	0.064778316701
0	7337	65.41180170234	0.030793815954
0	7342	65.442595518294	0.011624563731
0	7347	65.454220082025	0.041168998828
0	7352	65.495389080853	0.03961479636
0	7357	65.535003877213	0.011259286081
0	7362	65.546263163294	0.039421417381
0	7368	65.585684580675	0.019489028812
0	7373	65.605173609487	0.04376903063
0	7378	65.648942640117	0.016695915269
0	7383	65.665638555386	0.001495837455
0	7385	65.667134392841	0.095168994013
0	7394	65.762303386854	0.028678892287
0	7400	65.790982279141	0.000299166742
0	7402	65.791281445883	0.02842129324
0	7410	65.819702739123	0.069176568613
0	7415	65.888879307736	0.122448467994
0	7420	66.01132777573	0.034221629441
0	7425	66.045549405171	0.012509055038
0	7430	66.058058460209	0.085032600636
0	7435	66.143091060845	0.032761240326
0	7441	66.175852301171	0.054237456956
0	7447	66.230089758127	0.067110364876
0	7452	66.297200123003	0.010548523628
0	7457	66.307748646631	0.026341119873
0	7462	66.334089766504	0.007383398132
0	7464	66.341473164636	0.070514578434
0	7472	66.41198774307	0.067553627851
0	7478	66.479541370921	0.03227554723
0	7483	66.511816918151	0.114304297794
0	7489	66.626121215945	0.095751662429
0	7495	66.721872878374	0.12108469132
0	7500	66.842957569694	0.225578452556
0	7505	67.06853602225	0.065957362404
0	7511	67.134493384654	0.022581108749
0	7516	67.157074493403	0.029579304298
0	7521	67.186653797701	0.031191392791
0	7527	67.217845190492	0.000859243161
0	7529	67.218704433653	0.085407987237
0	7537	67.30411242089	0.026377390072
0	7542	67.330489810962	0.032156013762
0	7547	67.362645824724	0.240820741185
0	7553	67.603466565909	0.103553195458
0	7558	67.707019761367	0.070584835616
0	7564	67.777604596983	0.013132172646
0	7569	67.790736769629	0.034511712766
0	7574	67.825248482395	0.044293068671
0	7580	67.869541551066	0.067849131507
0	7585	67.937390682573	0.116670014099
0	7590	68.054060696672	0.164609714315
0	7598	68.218670410987	0.011145275556
0	7603	68.229815686543	0.083937946381
0	7608	68.313753632924	0.03011319941
0	7613	68.343866832334	0.006001567885
0	7615	68.349868400219	0.016021933601
0	7623	68.36589033382	0.07055191015
0	7628	68.43644224397	0.019606272986
0	7633	68.456048516956	0.071194092015
0	7638	68.527242608971	0.030741581848
0	7644	68.557984190819	0.018975665909
0	7649	68.576959856728	0.01721032568
0	7654	68.594170182408	0.04362915363
0	7660	68.637799336038	0.009572440505
0	7665	68.647371776543	0.003420084675
0	7667	68.650791861218	0.059714077908
0	7675	68.710505939126	0.016006795
0	7680	68.726512734126	0.018709116046
0	7685	68.745221850172	0.007875081726
0	7688	68.753096931898	0.018908993893
0	7696	68.772005925791	0.115672511562
0	7701	68.887678437353	0.07127917041
0	7706	68.958957607763	0.057067451776
0	7711	69.016025059539	0.024629958459
0	7717	69.040655017998	0.285713383439
0	7724	69.326368401437	0.075944396356
0	7729	69.402312797793	0.11297624145
0	7734	69.515289039243	0.020530393076
0	7739	69.535819432319	0.012298103127
0	7744	69.548117535446	0.003476021844
0	7746	69.55159355729	0.101488342689
0	7755	69.653081899979	0.00174397602
0	7757	69.654825875999	0.005506831058
0	7759	69.660332707057	0.131628974243
0	7770	69.7919616813	0.002583925682
0	7772	69.794545606982	0.001059162703
0	7774	69.795604769685	0.001314324853
0	7776	69.796919094538	0.116036412978
0	7792	69.912955507516	0.052238605522
0	7798	69.965194113038	0.023463969167
0	7803	69.988658082205	0.106935360982
0	7808	70.095593443187	0.069796445643
0	7813	70.16538988883	0.016269008437
0	7819	70.181658897267	0.073676734678
0	7825	70.255335631945	0.005534547549
0	7827	70.260870179494	0.134228289952
0	7837	70.395098469446	0.016600547854
0	7842	70.4116990173	0.007526974643
0	7844	70.419225991943	0.271847666411
0	7853	70.691073658354	0.050679126786
0	7858	70.74175278514	0.025310203055
0	7864	70.767062988195	0.002879738329
0	7866	70.769942726524	0.019817765744
0	7874	70.789760492268	0.089504665643
0	7880	70.879265157911	0.03451348046
0	7885	70.913778638371	0.088678201801
0	7890	71.002456840172	0.087581314727
0	7895	71.090038154899	0.004350954922
0	7897	71.094389109821	0.029362075565
0	7905	71.123751185386	0.218608910165
0	7915	71.342360095551	0.013788910472
0	7920	71.356149006023	0.045194065682
0	7925	71.401343071705	0.004725477795
0	7927	71.4060685495	0.002209665575
0	7929	71.408278215075	0.097366639989
0	7941	71.505644855064	0.080171372159
0	7947	71.585816227223	0.14793722182
0	7953	71.733753449043	0.007535501945
0	7955	71.741288950988	0.013510049484
0	7963	71.754799000472	0.008201204775
0	7965	71.763000205247	0.115141500783
0	7974	71.87814170603	0.026025651142
0	7979	71.904167357172	0.07255617113
0	7984	71.976723528302	0.061722986598
0	7989	72.0384465149	0.001972015838
0	7991	72.040418530738	0.018577165053
0	7999	72.058995695791	0.00047294027
0	8001	72.059468636061	0.027849557305
0	8010	72.087318193366	0.175847881591
0	8017	72.263166074957	0.043519477067
0	8022	72.306685552024	0.007834959415
0	8024	72.314520511439	0.026049802037
0	8032	72.340570313476	0.024366770928
0	8037	72.364937084404	0.000398607409
0	8039	72.365335691813	0.011578167485
0	8044	72.376913859298	0.012628411684
0	8049	72.389542270982	0.037921498313
0	8057	72.427463769295	4.1761467e-05
0	8059	72.427505530762	0.036127157479
0	8067	72.463632688241	0.012205353054
0	8072	72.475838041295	0.008862525255
0	8077	72.48470056655	0.067481986429
0	8082	72.552182552979	0.034840170486
0	8087	72.587022723465	0.046469461431
0	8092	72.633492184896	0.013497858316
0	8097	72.646990043212	0.167644143315
0	8102	72.814634186527	0.013755572837
0	8107	72.828389759364	0.137690684834
0	8112	72.966080444198	0.103830251447
0	8119	73.069910695645	0.072330061856
0	8124	73.142240757501	0.02521165889
0	8129	73.167452416391	0.010929756302
0	8134	73.178382172693	0.00674317921
0	8136	73.185125351903	0.170895204133
0	8145	73.356020556036	0.128523627613
0	8151	73.484544183649	0.013757882059
0	8156	73.498302065708	0.029051290305
0	8161	73.527353356013	0.00148713532
0	8163	73.528840491333	0.040242981014
0	8171	73.569083472347	0.064878538167
0	8177	73.633962010514	0.14162991218
0	8182	73.775591922694	0.108506866811
0	8187	73.884098789505	0.017955662047
0	8192	73.902054451552	0.019645491669
0	8197	73.921699943221	0.008591835405
0	8199	73.930291778626	0.033084059458
0	8207	73.963375838084	0.008739686396
0	8212	73.97211552448	0.024623947687
0	8217	73.996739472167	0.013543175944
0	8222	74.010282648111	0.020028501019
0	8227	74.03031114913	0.18855197183
0	8233	74.21886312096	0.010260894144
0	8238	74.229124015104	0.074794934066
0	8244	74.30391894917	0.099288714282
0	8249	74.403207663452	0.02969611642
0	8254	74.432903779872	0.012217443848
0	8259	74.44512122372	0.008008430505
0	8261	74.453129654225	0.0369339978
0	8269	74.490063652025	0.068351166327
0	8275	74.558414818352	0.048555772148
0	8280	74.6069705905	0.042735235443
0	8286	74.649705825943	0.046071283405
0	8291	74.695777109348	0.052534874041
0	8297	74.748311983389	0.006978502902
0	8299	74.755290486291	0.021200403287
0	8307	74.776490889578	0.01252439527
0	8312	74.789015284848	0.019781520082
0	8317	74.80879680493	0.065498760702
0	8322	74.874295565632	0.165297797486
0	8328	75.039593363118	0.014135770309
0	8333	75.053729133427	0.045408504579
0	8339	75.099137638006	0.034548590351
0	8344	75.133686228357	0.054874624343
0	8349	75.1885608527	0.030399903732
0	8354	75.218960756432	0.020940596652
0	8359	75.239901353084	0.280475105556
0	8364	75.52037645864	0.091757047119
0	8371	75.612133505759	0.040841442642
0	8376	75.652974948401	0.055424393139
0	8382	75.70839934154	0.008609466659
0	8387	75.717008808199	0.023995734148
0	8392	75.741004542347	0.006926002104
0	8394	75.747930544451	0.025691427812
0	8402	75.773621972263	0.148872699299
0	8409	75.922494671562	0.02510969364
0	8414	75.947604365202	0.034636960473
0	8419	75.982241325675	0.177039873425
0	8425	76.1592811991	0.024065388746
0	8430	76.183346587846	0.015742639401
0	8435	76.199089227247	0.005350609403
0	8437	76.20443983665	0.070935284036
0	8446	76.275375120686	0.001335353713
0	8448	76.276710474399	0.010790524349
0	8453	76.287500998748	0.025025194268
0	8462	76.312526193016	0.114599782736
0	8469	76.427125975752	0.016125703901
0	8474	76.443251679653	0.027275831469
0	8479	76.470527511122	0.115347412639
0	8485	76.585874923761	0.0358300056
0	8491	76.621704929361	0.048145332021
0	8496	76.669850261382	0.052194490272
0	8501	76.722044751654	0.004179068289
0	8503	76.726223819943	0.008992917386
0	8508	76.735216737329	0.011550066677
0	8516	76.746766804006	0.025205854946
0	8522	76.771972658952	0.06984161575
0	8528	76.841814274702	0.02095996723
0	8533	76.862774241932	0.02252832904
0	8538	76.885302570972	0.108092029712
0	8543	76.993394600684	0.052779809213
0	8548	77.046174409897	0.015765969127
0	8554	77.061940379024	0.009463874789
0	8559	77.071404253813	0.020440513826
0	8564	77.091844767639	0.014341536495
0	8569	77.106186304134	0.064024773838
0	8574	77.170211077972	0.066771089731
0	8580	77.236982167703	0.052913605167
0	8585	77.28989577287	0.122419206752
0	8591	77.412314979622	0.027240885279
0	8596	77.439555864901	0.058200532166
0	8602	77.497756397067	0.03361003324
0	8607	77.531366430307	0.132048092519
0	8613	77.663414522826	0.044637807101
0	8618	77.708052329927	0.036337657087
0	8623	77.744389987014	0.101043068864
0	8629	77.845433055878	0.059765427981
0	8634	77.905198483859	0.019102525982
0	8640	77.924301009841	0.010978103396
0	8645	77.935279113237	0.01702770507
0	8650	77.952306818307	0.01137395819
0	8655	77.963680776497	0.055521562673
0	8661	78.01920233917	0.109840858019
0	8666	78.129043197189	0.024741218642
0	8671	78.153784415831	0.029867377543
0	8676	78.183651793374	0.047486171173
0	8681	78.231137964547	0.026554335913
0	8686	78.25769230046	0.019908694333
0	8692	78.277600994793	0.032451105517
0	8697	78.31005210031	0.031539897047
0	8703	78.341591997357	0.05553304558
0	8708	78.397125042937	0.05477318912
0	8714	78.451898232057	0.016429942697
0	8719	78.468328174754	0.07020663016
0	8725	78.538534804914	0.028281326965
0	8730	78.566816131879	0.060324690374
0	8735	78.627140822253	0.046341459118
0	8741	78.673482281371	0.206645474031
0	8748	78.880127755402	0.063096386225
0	8753	78.943224141627	0.014405976854
0	8758	78.957630118481	0.001902068749
0	8760	78.95953218723	0.06585409941
0	8768	79.02538628664	0.006399769456
0	8770	79.031786056096	0.012247150134
0	8778	79.04403320623	0.144834731665
0	8783	79.188867937895	0.045817908281
0	8788	79.234685846176	0.021530335524
0	8794	79.2562161817	0.068540164568
0	8800	79.324756346268	0.012198053293
0	8805	79.336954399561	0.038358638057
0	8810	79.375313037618	0.012186838495
0	8815	79.387499876113	0.011814036382
0	8820	79.399313912495	0.094912637439
0	8825	79.494226549934	0.069723177749
0	8832	79.563949727683	0.064808549457
0	8837	79.62875827714	0.151447330277
0	8844	79.780205607417	0.021367408274
0	8849	79.801573015691	0.011058428245
0	8854	79.812631443936	0.032180922672
0	8860	79.844812366608	0.027210570411
0	8865	79.872022937019	0.026084147381
0	8870	79.8981070844	0.069556130016
0	8876	79.967663214416	0.024906894326
0	8881	79.992570108742	0.099690920141
0	8886	80.092261028883	0.131214730381
0	8892	80.223475759264	0.030903183039
0	8897	80.254378942303	0.006989261632
0	8899	80.261368203935	0.049575579595
0	8907	80.31094378353	0.078663574548
0	8912	80.389607358078	0.009997860111
0	8917	80.399605218189	0.071084672971
0	8922	80.47068989116	0.007154553493
0	8924	80.477844444653	0.020891700334
0	8932	80.498736144987	0.041118747803
0	8937	80.53985489279	0.017223263142
0	8942	80.557078155932	0.181300402186
0	8949	80.738378558118	0.160796967734
0	8955	80.899175525852	0.048946547866
0	8961	80.948122073718	0.033287899429
0	8966	80.981409973147	0.06678520094
0	8972	81.048195174087	0.05764238688
0	8978	81.105837560967	0.113727451867
0	8985	81.219565012834	0.078052202908
0	8991	81.297617215742	0.002238021518
0	8993	81.29985523726	0.17025638099
0	9003	81.47011161825	0.012808852176
0	9008	81.482920470426	0.057524804743
0	9014	81.540445275169	0.052006619461
0	9019	81.59245189463	0.008101806062
0	9021	81.600553700692	0.076827539064
0	9029	81.677381239756	0.013249540512
0	9034	81.690630780268	0.03484015803
0	9039	81.725470938298	0.006578988972
0	9041	81.73204992727	0.00032750779
0	9043	81.73237743506	0.070668917478
0	9055	81.803046352538	0.006679971961
0	9057	81.809726324499	0.117866168155
0	9065	81.927592492654	0.00088760866
0	9067	81.928480101314	0.019120208406
0	9075	81.94760030972	0.013107593557
0	9080	81.960707903277	0.122564305191
0	9087	82.083272208468	0.061382065889
0	9092	82.144654274357	0.032505346117
0	9098	82.177159620474	0.015991743788
0	9103	82.193151364262	0.078463351317
0	9108	82.271614715579	0.102654205372
0	9114	82.374268920951	0.05939670768
0	9120	82.433665628631	0.01887417727
0	9125	82.452539805901	0.067516528144
0	9131	82.520056334045	0.001295292677
0	9133	82.521351626722	0.060502905532
0	9141	82.581854532254	0.014005513367
0	9146	82.595860045621	0.037238089133
0	9151	82.633098134754	0.03507398075
0	9156	82.668172115504	0.085992254826
0	9161	82.75416437033	0.017940841604
0	9166	82.772105211934	0.052232069526
0	9171	82.82433728146	0.051858150921
0	9178	82.876195432381	0.067624286491
0	9184	82.943819718872	0.00121471675
0	9186	82.945034435622	0.04315593107
0	9194	82.988190366692	0.050078476471
0	9199	83.038268843163	0.045835352738
0	9204	83.084104195901	0.02094253376
0	9209	83.105046729661	0.018628478087
0	9215	83.123675207748	0.001103450262
0	9217	83.12477865801	0.020184698648
0	9225	83.144963356658	0.122093550117
0	9230	83.267056906775	0.042856612168
0	9235	83.309913518943	0.146554705538
0	9241	83.456468224481	0.03583614831
0	9246	83.492304372791	0.03725315205
0	9252	83.529557524841	0.049853163114
0	9260	83.579410687955	0.097263621221
0	9265	83.676674309176	0.012325805446
0	9270	83.689000114622	0.029788105513
0	9275	83.718788220135	0.02859142247
0	9280	83.747379642605	0.106072513341
0	9286	83.853452155946	0.104705663178
0	9291	83.958157819124	0.000409902499
0	9293	83.958567721623	0.028439234856
0	9301	83.987006956479	0.081407931738
0	9306	84.068414888217	0.055652298981
0	9311	84.124067187198	0.087388612247
0	9318	84.211455799445	0.017413487108
0	9325	84.228869286553	0.019618582709
0	9330	84.248487869262	0.174051769592
0	9335	84.422539638854	0.182784452744
0	9341	84.605324091598	0.072882842282
0	9347	84.67820693388	0.258452482561
0	9355	84.936659416441	0.056596810559
0	9362	84.993256227	0.020796647853
0	9367	85.014052874853	0.00212362682
0	9369	85.016176501673	0.028041067313
0	9377	85.044217568986	0.059028942295
0	9382	85.103246511281	0.038357984534
0	9387	85.141604495815	0.014289563017
0	9392	85.155894058832	0.026614158939
0	9397	85.182508217771	0.072863966176
0	9402	85.255372183947	0.009831854726
0	9407	85.265204038673	0.056537284259
0	9413	85.321741322932	0.081402494119
0	9418	85.403143817051	0.075928906505
0	9424	85.479072723556	0.059769871695
0	9431	85.538842595251	0.032259512713
0	9436	85.571102107964	0.049115853244
0	9441	85.620217961208	0.380439802956
0	9451	86.000657764164	0.003188105055
0	9453	86.003845869219	0.048695905355
0	9461	86.052541774574	0.04590343629
0	9466	86.098445210864	0.022984879096
0	9472	86.12143008996	0.033418551278
0	9477	86.154848641238	0.013887308087
0	9482	86.168735949325	0.040076112418
0	9487	86.208812061743	0.019280755666
0	9492	86.228092817409	0.179376545137
0	9499	86.407469362546	0.034774044976
0	9505	86.442243407522	0.074604699031
0	9512	86.516848106553	0.029372090772
0	9517	86.546220197325	0.00789366143
0	9519	86.554113858755	0.16517653238
0	9527	86.719290391135	0.065684043906
0	9533	86.784974435041	0.084152520765
0	9538	86.869126955806	0.002328747516
0	9540	86.871455703322	0.022434333357
0	9548	86.893890036679	0.01147158021
0	9553	86.905361616889	0.004938771761
0	9555	86.91030038865	0.032837409939
0	9563	86.943137798589	0.029541736512
0	9568	86.972679535101	0.021617401041
0	9574	86.994296936142	0.006957635351
0	9576	87.001254571493	0.000322644151
0	9578	87.001577215644	0.082011762864
0	9589	87.083588978508	0.009349712945
0	9594	87.092938691453	0.1670239986
0	9601	87.259962690053	0.093272804126
0	9608	87.353235494179	0.069565349494
0	9613	87.422800843673	0.014624119078
0	9618	87.437424962751	0.067912988919
0	9624	87.50533795167	0.002326858951
0	9626	87.507664810621	0.081518203322
0	9635	87.589183013943	0.02671548805
0	9641	87.615898501993	0.010925378586
0	9646	87.626823880579	0.023282865612
0	9651	87.650106746191	0.020953091182
0	9656	87.671059837373	0.074234898753
0	9663	87.745294736126	0.006907575207
0	9665	87.752202311333	0.022054074789
0	9673	87.774256386122	0.033833350808
0	9678	87.80808973693	0.019182156843
0	9683	87.827271893773	0.04063050806
0	9688	87.867902401833	0.022850830862
0	9693	87.890753232695	0.002204961616
0	9695	87.892958194311	0.022957458449
0	9704	87.91591565276	0.094265279943
0	9710	88.010180932703	0.008170176197
0	9715	88.0183511089	0.063852833978
0	9721	88.082203942878	0.073570982592
0	9726	88.15577492547	0.024819763142
0	9731	88.180594688612	0.062093452512
0	9736	88.242688141124	0.064018662502
0	9742	88.306706803626	0.134326796856
0	9748	88.441033600482	0.044590944757
0	9755	88.485624545239	0.029100422375
0	9761	88.514724967614	0.073132739193
0	9766	88.587857706807	0.016857104796
0	9771	88.604714811603	0.038116054392
0	9776	88.642830865995	0.000930471439
0	9778	88.643761337434	0.005374754515
0	9780	88.649136091949	0.016461393767
0	9791	88.665597485716	0.098004256274
0	9798	88.76360174199	0.017525389763
0	9803	88.781127131753	0.017863374179
0	9808	88.798990505932	0.013434487663
0	9813	88.812424993595	0.028228538477
0	9818	88.840653532072	0.04877722297
0	9823	88.889430755042	0.013389055427
0	9828	88.902819810469	0.046011628899
0	9834	88.948831439368	0.028839621869
0	9839	88.977671061237	0.024719859849
0	9844	89.002390921086	0.003955150169
0	9846	89.006346071255	0.038864817279
0	9855	89.045210888534	0.03313995339
0	9861	89.078350841924	0.064878952406
0	9866	89.14322979433	0.001248288452
0	9868	89.144478082782	0.07106126026
0	9876	89.215539343042	0.037470134761
0	9881	89.253009477803	0.175530224854
0	9888	89.428539702657	0.106344478775
0	9894	89.534884181432	0.016755475702
0	9899	89.551639657134	0.06708638122
0	9906	89.618726038354	0.02436722777
0	9911	89.643093266124	0.004710399942
0	9913	89.647803666066	0.072828385399
0	9921	89.720632051465	0.016343330427
0	9926	89.736975381892	0.025955073549
0	9932	89.762930455441	0.015111478373
0	9937	89.778041933814	0.023819374589
0	9942	89.801861308403	0.021639222733
0	9947	89.823500531136	0.1194288576
0	9953	89.942929388736	0.001348212823
0	9955	89.944277601559	0.008520430527
0	9960	89.952798032086	0.041635474323
0	9968	89.994433506409	0.059241228173
0	9974	90.053674734582	0.066500409617
0	9979	90.120175144199	0.051998910199
0	9984	90.172174054398	0.016227438426
0	9989	90.188401492824	0.01816917729
0	9994	90.206570670114	0.041624389566
0	9999	90.24819505968	0.074271194723
0	10004	90.322466254403	0.04441679293
0	10009	90.366883047333	0.096767042336
0	10014	90.463650089669	0.070118847298
0	10019	90.533768936967	0.058010944298
0	10025	90.591779881265	0.009944179718
0	10030	90.601724060983	0.077567086548
0	10036	90.679291147531	0.089217032591
0	10041	90.768508180122	0.015747284435
0	10046	90.784255464557	0.029773417064
0	10051	90.814028881621	0.022516773442
0	10056	90.836545655063	0.023999223365
0	10061	90.860544878428	0.0017320283
0	10063	90.862276906728	0.026536136489
0	10072	90.888813043217	0.066851717487
0	10077	90.955664760704	0.062969345763
0	10083	91.018634106467	0.016219108149
0	10089	91.034853214616	0.057567091924
0	10094	91.09242030654	0.053462288776
0	10099	91.145882595316	0.007458045142
0	10104	91.153340640458	0.008318034851
0	10109	91.161658675309	0.005740167937
0	10111	91.167398843246	0.01574964606
0	10119	91.183148489306	0.016680548747
0	10124	91.199829038053	0.019526266931
0	10129	91.219355304984	0.084726087231
0	10134	91.304081392215	0.093564400789
0	10140	91.397645793004	0.028403622565
0	10145	91.426049415569	0.018014087576
0	10150	91.444063503145	0.032438196573
0	10155	91.476501699718	0.040540796952
0	10161	91.51704249667	0.218969379454
0	10169	91.736011876124	0.000258165797
0	10171	91.736270041921	0.046986187016
0	10179	91.783256228937	0.102130130354
0	10186	91.885386359291	0.012456332929
0	10191	91.89784269222	0.063062372474
0	10197	91.960905064694	0.052383222262
0	10202	92.013288286956	0.067299227496
0	10208	92.080587514452	0.093188565786
0	10213	92.173776080238	0.133728788166
0	10218	92.307504868404	0.220262413479
0	10225	92.527767281883	0.070975772783
0	10230	92.598743054666	0.02150809284
0	10235	92.620251147506	0.026917628926
0	10240	92.647168776432	0.070883812285
0	10246	92.718052588717	0.027249216404
0	10251	92.745301805121	0.005596018094
0	10253	92.750897823215	0.026366302717
0	10261	92.777264125932	0.011470152937
0	10266	92.788734278869	0.162152598061
0	10275	92.95088687693	0.123042129407
0	10281	93.073929006337	0.005151215067
0	10284	93.079080221404	0.031310108125
0	10292	93.110390329529	0.081527370063
0	10299	93.191917699592	0.007415770453
0	10301	93.199333470045	0.112891315108
0	10309	93.312224785153	0.238892979482
0	10317	93.551117764635	0.149585352972
0	10325	93.700703117607	0.010264387955
0	10330	93.710967505562	0.163435948805
0	10337	93.874403454367	0.001101304372
0	10339	93.875504758739	0.080171186664
0	10348	93.955675945403	0.040938847747
0	10354	93.99661479315	0.014724156367
0	10359	94.011338949517	0.01991620884
0	10364	94.031255158357	0.020485668728
0	10369	94.051740827085	0.03871977717
0	10375	94.090460604255	0.016589401138
0	10380	94.107050005393	0.026069890165
0	10385	94.133119895558	0.057670166684
0	10390	94.190790062242	0.027970570695
0	10396	94.218760632937	0.001402556054
0	10398	94.220163188991	0.019537675622
0	10406	94.239700864613	0.01742832911
0	10411	94.257129193723	0.0105974786
0	10417	94.267726672323	0.051289812038
0	10422	94.319016484361	0.024121935768
0	10427	94.343138420129	0.101778501404
0	10434	94.444916921533	0.00845738946
0	10439	94.453374310993	0.134203632657
0	10445	94.58757794365	0.003055666335
0	10447	94.590633609985	0.032601818638
0	10456	94.623235428623	0.07898402655
0	10464	94.702219455173	0.123452274895
0	10469	94.825671730068	0.006077789378
0	10471	94.831749519446	0.016013985139
0	10479	94.847763504585	0.044900383029
0	10484	94.892663887614	0.132730943002
0	10490	95.025394830616	0.054770651359
0	10495	95.080165481975	0.000147438592
0	10497	95.080312920567	0.048926550261
0	10506	95.129239470828	0.013960996444
0	10511	95.143200467272	0.021485242149
0	10516	95.164685709421	0.101881424625
0	10521	95.266567134046	0.049570190488
0	10526	95.316137324534	0.056989224915
0	10531	95.373126549449	0.017054974786
0	10536	95.390181524235	0.02349801028
0	10542	95.413679534515	0.000188815334
0	10544	95.413868349849	0.023603756331
0	10552	95.43747210618	0.030158696403
0	10558	95.467630802583	0.023000304093
0	10563	95.490631106676	0.020569074194
0	10568	95.51120018087	0.109894556302
0	10574	95.621094737172	0.092317518886
0	10580	95.713412256058	0.09937294736
0	10586	95.812785203418	0.052547446636
0	10591	95.865332650054	0.107810869165
0	10597	95.973143519219	0.016225523485
0	10602	95.989369042704	0.057379432408
0	10607	96.046748475112	0.124108861935
0	10612	96.170857337047	0.019532965833
0	10617	96.19039030288	0.032003455995
0	10622	96.222393758875	0.052203421869
0	10627	96.274597180744	0.052190434644
0	10633	96.326787615388	0.006443158091
0	10635	96.333230773479	0.017813299488
0	10643	96.351044072967	0.059281556592
0	10650	96.410325629559	0.007601860963
0	10652	96.417927490522	0.005079439428
0	10657	96.42300692995	0.017062291024
0	10665	96.440069220974	0.025566874129
0	10670	96.465636095103	0.100036635071
0	10677	96.565672730174	0.024723746775
0	10682	96.590396476949	0.017921226043
0	10687	96.608317702992	0.017611523904
0	10693	96.625929226896	0.011903953166
0	10698	96.637833180062	0.053214478162
0	10703	96.691047658224	0.050989011077
0	10708	96.742036669301	0.046958110807
0	10713	96.788994780108	0.022699436032
0	10718	96.81169421614	0.043635432729
0	10725	96.855329648869	0.018111723734
0	10730	96.873441372603	0.152445602343
0	10738	97.025886974946	0.035521956024
0	10743	97.06140893097	0.142508517773
0	10748	97.203917448743	0.001297665705
0	10750	97.205215114448	0.003581622633
0	10752	97.208796737081	0.042892992975
0	10763	97.251689730056	0.109143480899
0	10768	97.360833210955	0.106154505346
0	10773	97.466987716301	0.155948389672
0	10778	97.622936105973	0.035594465682
0	10783	97.658530571655	0.081313695397
0	10789	97.739844267052	0.014651102591
0	10794	97.754495369643	0.044698302201
0	10800	97.799193671844	0.093162065964
0	10806	97.892355737808	0.002781185001
0	10808	97.895136922809	0.086847707842
0	10818	97.981984630651	0.001839711031
0	10820	97.983824341682	0.036385895903
0	10828	98.020210237585	0.071514089693
0	10835	98.091724327278	0.00046191493
0	10837	98.092186242208	0.014778561942
0	10842	98.10696480415	0.042109349681
0	10850	98.149074153831	0.094655078421
0	10856	98.243729232252	0.029516134818
0	10861	98.27324536707	0.014163923853
0	10866	98.287409290923	0.052918519806
0	10871	98.340327810729	0.068527334633
0	10876	98.408855145362	0.005756344676
0	10878	98.414611490038	0.060793135733
0	10888	98.475404625771	0.044126553388
0	10893	98.519531179159	0.025566035458
0	10898	98.545097214617	0.042963563036
0	10903	98.588060777653	0.020779696313
0	10908	98.608840473966	0.081192044602
0	10913	98.690032518568	0.08351469332
0	10919	98.773547211888	0.018620211877
0	10924	98.792167423765	0.053376269267
0	10929	98.845543693032	0.02575037725
0	10934	98.871294070282	0.004741113653
0	10936	98.876035183935	0.146424626763
0	10945	99.022459810698	0.066950665308
0	10950	99.089410476006	0.002986135273
0	10952	99.092396611279	0.08397125141
0	10962	99.176367862689	0.157899256084
0	10967	99.334267118773	0.018376897855
0	10972	99.352644016628	0.029535219576
0	10977	99.382179236204	0.095689766263
0	10985	99.477869002467	0.074766909038
0	10990	99.552635911505	0.014289431499
0	10995	99.566925343004	0.024064066698
0	11000	99.590989409702	0.134467778917
0	11007	99.725457188619	0.059196354423
0	11012	99.784653543042	0.098965060342
0	11017	99.883618603384	0.017046937663
0	11022	99.900665541047	0.158518168718
0	11029	100.059183709765	0.086239326774
0	11035	100.145423036539	0.04518836506
0	11040	100.190611401599	0.006189781216
0	11043	100.196801182815	0.052675491278
0	11051	100.249476674093	0.099104958217
0	11056	100.34858163231	0.041298843655
0	11062	100.389880475965	0.004544834217
0	11064	100.394425310182	0.002977810509
0	11066	100.397403120691	0.019274786733
0	11077	100.416677907424	0.04912873568
0	11082	100.465806643104	0.074678555651
0	11087	100.540485198755	0.128273691013
0	11092	100.668758889768	0.057480652631
0	11097	100.726239542399	0.144021988217
0	11103	100.870261530616	0.029194680629
0	11108	100.899456211245	0.02829390629
0	11113	100.927750117535	0.004233530216
0	11115	100.931983647751	0.001299966918
0	11117	100.933283614669	0.043832896288
0	11130	100.977116510957	0.021816595514
0	11135	100.998933106471	0.003241241503
0	11137	101.002174347974	0.02493732625
0	11145	101.027111674224	0.009297590441
0	11150	101.036409264665	0.061028532055
0	11156	101.09743779672	0.045595704498
0	11161	101.143033501218	0.038719134946
0	11167	101.181752636164	0.050128344499
0	11172	101.231880980663	0.144412337495
0	11178	101.376293318158	0.053943486045
0	11184	101.430236804203	0.14586672011
0	11190	101.576103524313	0.045677190639
0	11197	101.621780714952	0.015044779617
0	11202	101.636825494569	0.129550484978
0	11208	101.766375979547	0.002790281397
0	11210	101.769166260944	0.055516146503
0	11219	101.824682407447	0.01903907803
0	11224	101.843721485477	0.129404190277
0	11232	101.973125675754	0.084487828568
0	11238	102.057613504322	0.002058273246
0	11240	102.059671777568	0.051412650926
0	11248	102.111084428494	0.010149004133
0	11253	102.121233432627	0.046313586365
0	11258	102.167547018992	0.001508606207
0	11260	102.169055625199	0.001734938838
0	11262	102.170790564037	0.042596715106
0	11273	102.213387279143	0.013877554877
0	11278	102.22726483402	0.048046940041
0	11283	102.275311774061	0.103331938095
0	11289	102.378643712156	0.065830356085
0	11294	102.444474068241	0.028935660818
0	11300	102.473409729059	0.113874041921
0	11307	102.58728377098	0.004844032007
0	11309	102.592127802987	0.014771424444
0	11318	102.606899227431	0.025427707675
0	11323	102.632326935106	0.092438887346
0	11329	102.724765822452	0.046783981321
0	11335	102.771549803773	0.021365716966
0	11340	102.792915520739	0.008478273089
0	11342	102.801393793828	0.067145849676
0	11350	102.868539643504	0.018283052281
0	11355	102.886822695785	0.015699877294
0	11360	102.902522573079	0.009969267738
0	11366	102.912491840817	0.070832804504
0	11372	102.983324645321	0.034056517429
0	11377	103.01738116275	0.018622302166
0	11382	103.036003464916	0.018785010473
0	11388	103.054788475389	0.033263378463
0	11393	103.088051853852	0.037631723182
0	11399	103.125683577034	0.112850321998
0	11405	103.238533899032	0.025689412443
0	11410	103.264223311475	0.008507764065
0	11412	103.27273107554	0.079307946356
0	11420	103.352039021896	0.004977517405
0	11422	103.357016539301	0.020297209946
0	11430	103.377313749247	0.009633610332
0	11435	103.386947359579	0.066388783304
0	11440	103.453336142883	0.051475308794
0	11446	103.504811451677	0.129325028408
0	11452	103.634136480085	0.023337000994
0	11458	103.657473481079	0.135687560479
0	11465	103.793161041558	0.123581669301
0	11470	103.916742710859	0.042337700596
0	11475	103.959080411455	0.036634565054
0	11480	103.995714976509	0.00255391137
0	11482	103.998268887879	0.01668020701
0	11490	104.014949094889	0.095431268031
0	11495	104.11038036292	0.025499131072
0	11500	104.135879493992	0.102371474442
0	11505	104.238250968434	0.053745444092
0	11510	104.291996412526	0.002979232955
0	11512	104.294975645481	0.215009528083
0	11521	104.509985173564	0.051480373876
0	11526	104.56146554744	0.013398230005
0	11531	104.574863777445	0.023355795842
0	11536	104.598219573287	0.01304420842
0	11541	104.611263781707	0.088929720188
0	11548	104.700193501895	0.101484175378
0	11554	104.801677677273	0.010362495698
0	11559	104.812040172971	0.003846384476
0	11561	104.815886557447	0.009628696809
0	11566	104.825515254256	0.024909992968
0	11574	104.850425247224	0.057791393014
0	11580	104.908216640238	0.007884013102
0	11585	104.91610065334	0.026546645972
0	11590	104.942647299312	0.176339402883
0	11601	105.118986702195	0.179433977541
0	11610	105.298420679736	0.002206667168
0	11612	105.300627346904	0.037689790569
0	11621	105.338317137473	0.043574683477
0	11626	105.38189182095	0.017981093072
0	11631	105.399872914022	0.0675270391
0	11636	105.467399953122	0.017301063192
0	11641	105.484701016314	0.011740290056
0	11646	105.49644130637	0.266620310427
0	11651	105.763061616797	0.054582725413
0	11656	105.81764434221	0.099874514087
0	11663	105.917518856297	0.035084199273
0	11668	105.95260305557	0.010529658054
0	11673	105.963132713624	0.035577773089
0	11678	105.998710486713	0.021047378467
0	11685	106.01975786518	0.010604763054
0	11690	106.030362628234	0.095571901989
0	11695	106.125934530223	0.030814126859
0	11701	106.156748657082	0.079893368316
0	11706	106.236642025398	0.014552360089
0	11711	106.251194385487	0.016745434205
0	11716	106.267939819692	0.082797971162
0	11721	106.350737790854	0.049196660534
0	11726	106.399934451388	0.108599016113
0	11731	106.508533467501	0.086555039022
0	11737	106.595088506523	0.011870572344
0	11742	106.606959078867	0.003858516186
0	11744	106.610817595053	0.04726758116
0	11753	106.658085176213	0.039009060853
0	11758	106.697094237066	0.093746627806
0	11765	106.790840864872	0.054185916552
0	11770	106.845026781424	0.002135937582
0	11772	106.847162719006	0.100450203762
0	11781	106.947612922768	0.027056594506
0	11786	106.974669517274	0.064384464736
0	11791	107.03905398201	0.002317108705
0	11793	107.041371090715	0.042355971687
0	11801	107.083727062402	0.063123551062
0	11806	107.146850613464	0.207609425052
0	11815	107.354460038516	0.055246910843
0	11820	107.409706949359	0.105267142648
0	11826	107.514974092007	0.080038043205
0	11832	107.595012135212	0.029113923001
0	11838	107.624126058213	0.000348011843
0	11840	107.624474070056	0.031801457712
0	11848	107.656275527768	0.009583430794
0	11853	107.665858958562	0.033358728528
0	11858	107.69921768709	0.014384082047
0	11864	107.713601769137	0.023480508126
0	11869	107.737082277263	0.007711477312
0	11874	107.744793754575	0.019811865638
0	11880	107.764605620213	0.018246472725
0	11885	107.782852092938	0.090034113805
0	11890	107.872886206743	0.037654359676
0	11895	107.910540566419	0.017154685744
0	11900	107.927695252163	0.03731674008
0	11905	107.965011992243	0.008797291404
0	11910	107.973809283647	0.021859938197
0	11915	107.995669221844	0.020523680584
0	11920	108.016192902428	0.059059672135
0	11925	108.075252574563	0.043020783385
0	11930	108.118273357948	0.079744004964
0	11936	108.198017362912	0.053658867915
0	11941	108.251676230827	0.196429730973
0	11947	108.4481059618	0.014484623787
0	11952	108.462590585587	0.028824987026
0	11957	108.491415572613	0.086081792874
0	11964	108.577497365487	0.029745156431
0	11970	108.607242521918	0.07860767207
0	11975	108.685850193988	0.026582722356
0	11981	108.712432916344	0.053491991655
0	11986	108.765924907999	0.114677203498
0	11991	108.880602111497	0.023619648212
0	11996	108.904221759709	0.000945962824
0	11998	108.905167722533	0.018053475823
[...]
19	26782	248.153666468349	1.2946874057397
19	26883	249.448353874089	1.1847102911065
19	26975	250.633064165195	6.0595033111775
19	27612	256.692567476372	1.6735983294365
19	27782	258.366165805808	0.432057327635
19	27827	258.798223133443	2.4890996498521
19	28089	261.287322783295	0.13218750025068
19	28108	261.419510283546	0.89608968264314
19	28201	262.315599966189	0.011706895922784
19	28202	262.327306862112	0.4557849380219
19	28230	262.783091800134	4.4372952459572
19	28735	267.220387046091	1.8902837909061
19	28913	269.110670836997	0.92223720057542
19	29031	270.032908037572	0.10063559453754
19	29047	270.13354363211	0.13690549365461
19	29058	270.270449125765	1.102659204378
19	29208	271.373108330143	1.2023063417097
19	29354	272.575414671853	6.8894736668087
19	30029	279.464888338662	2.2906192979362
19	30275	281.755507636598	4.3557579714524
19	30639	286.11126560805	1.1360717136105
19	30749	287.247337321661	1.088902793889
19	30868	288.33624011555	0.38831871236323
19	30884	288.724558827913	0.50015663653788
19	30949	289.224715464451	1.2017602746732
19	31060	290.426475739124	0.34326439530898
19	31080	290.769740134433	1.7657572900013
19	31241	292.535497424434	1.9767989869377
19	31411	294.512296411372	2.3277309086761
19	31686	296.840027320048	0.49446212930978
19	31740	297.334489449358	2.5655722599374
19	31996	299.900061709295	0.045261865079764
19	32005	299.945323574375	0.30322611278091
19	32028	300.248549687156	5.869548724346
19	32681	306.118098411502	1.6353282452258
19	32835	307.753426656728	1.2132843690944
19	32976	308.966711025822	0.54546458859846
19	33027	309.51217561442	0.2892022350119
19	33067	309.801377849432	0.41241849825022
19	33112	310.213796347682	0.20016438161437
19	33150	310.413960729296	1.9352544081854
19	33404	312.349215137481	6.0333689501301
19	34013	318.382584087611	3.2240232628052
19	34385	321.606607350416	2.7678611261085
19	34704	324.374468476524	0.53385817943313
19	34728	324.908326655957	3.2467230882587
19	35077	328.155049744216	0.97692586908294
19	35188	329.131975613299	11.18160364371
19	36519	340.313579257009	0.2765757105816
19	36548	340.590154967591	1.5703691322625
19	36744	342.160524099853	2.3880480355087
19	36972	344.548572135362	2.2143234917584
19	37211	346.76289562712	2.2664630162835
19	37520	349.029358643404	1.3728282723871
19	37701	350.402186915791	2.4617824453536
19	38020	352.863969361145	3.0713005880542
19	38339	355.935269949199	2.4016930364049
19	38618	358.336962985604	0.027216723331867
19	38624	358.364179708936	1.0604954287216
19	38754	359.424675137658	4.0186705563825
19	39199	363.44334569404	4.6637933093053
19	39661	368.107139003345	1.4694783551771
19	39764	369.576617358522	0.57098066323765
19	39829	370.14759802176	5.6978117661378
19	40468	375.845409787898	1.3780539138913
19	40586	377.223463701789	6.1989233372308
19	41253	383.42238703902	0.058092939981008
19	41259	383.480479979001	6.549711262034
19	41916	390.030191241035	0.37656100486058
19	41970	390.406752245896	0.034111927754768
19	41971	390.440864173651	0.6093474528208
19	41999	391.050211626472	0.5245775857285
19	42048	391.5747892122	1.116809549824
19	42192	392.691598762024	9.982008898751
20	1510	13.228734057243	4.9564997917287
20	1950	18.185233848972	1.2093111605815
20	2107	19.394545009553	1.4500212603352
20	2235	20.844566269888	1.4873183831607
20	2388	22.331884653049	1.4459980288786
20	2558	23.777882681928	1.1918597059863
20	2655	24.969742387914	0.69036952364698
20	2721	25.660111911561	6.2965561408202
20	3411	31.956668052381	1.1927671685163
20	3524	33.149435220897	1.8597838380145
20	3725	35.009219058911	0.76460687816057
20	3818	35.773825937072	0.40764754795221
20	3879	36.181473485024	2.4668558591233
20	4104	38.648329344147	5.4894400986634
20	4679	44.13776944281	3.992787228459
20	5072	48.130556671269	1.3755515914497
20	5198	49.506108262719	0.28320945739101
20	5235	49.78931772011	1.506909628589
20	5432	51.296227348699	0.0038800930757311
20	5433	51.300107441775	1.4516434398298
20	5686	52.751750881605	0.46025341963107
20	5739	53.212004301236	0.43871162518233
20	5813	53.650715926418	1.5580991703004
20	5991	55.208815096718	2.846408190848
20	6387	58.055223287566	2.9308784262966
20	6765	60.986101713863	1.494128380476
20	6971	62.480230094339	1.6703224473263
20	7183	64.150552541665	7.0303721343217
20	7911	71.180924675987	0.15169703668319
20	7914	71.33262171267	2.9235839479641
20	8243	74.256205660634	0.3853692200147
20	8285	74.641574880649	4.6127378494799
20	8793	79.254312730129	0.84079159758723
20	8888	80.095104327716	4.0380198450986
20	9316	84.133124172815	0.091014336926588
20	9324	84.224138509742	0.72840983628366
20	9360	84.952548346026	3.0972351121381
20	9720	88.049783458164	0.412146261015
20	9753	88.461929719179	5.2225694652071
20	10324	93.684499184386	1.7252929264793
20	10541	95.409792110865	1.1440531151693
20	10676	96.553845226034	1.2062957334695
20	10796	97.760140959503	6.0280496830243
20	11464	103.788190642527	3.6943193827404
20	11825	107.482510025267	3.6049090406336
20	12287	111.087419065901	1.3105495462599
20	12394	112.397968612161	3.6999098267542
20	12744	116.097878438915	8.5957475164956
20	13637	124.693625955411	3.7757600375162
20	14014	128.469385992927	0.82111255308546
20	14093	129.290498546012	0.23960864550751
20	14105	129.53010719152	0.97477844090081
20	14220	130.504885632421	2.2554894160306
20	14405	132.760375048452	0.29093057254649
20	14433	133.051305620998	1.1450043190055
20	14548	134.196309940004	0.44619055754135
20	14598	134.642500497545	1.3327084910326
20	14731	135.975208988578	7.2442336896162
20	15535	143.219442678194	6.6782735309354
20	16221	149.897716209129	0.53660168862215
20	16274	150.434317897751	0.10129864338414
20	16302	150.535616541135	1.8321233246106
20	16483	152.367739865746	3.6938709158017
20	16827	156.061610781548	1.1521041459167
20	16958	157.213714927465	0.64938976887598
20	17004	157.863104696341	0.81881297951113
20	17089	158.681917675852	0.92875850425475
20	17173	159.610676180107	1.7322825810173
20	17370	161.342958761124	0.83133696536142
20	17473	162.174295726485	0.83064284793996
20	17530	163.004938574425	1.0995553252216
20	17648	164.104493899647	3.3691968406286
20	18037	167.473690740276	0.42899883493964
20	18066	167.902689575216	3.4686156037243
20	18348	171.37130517894	1.5375772675734
20	18526	172.908882446513	3.450601002844
20	18884	176.359483449357	2.2459171923986
20	19117	178.605400641756	6.4500370568685
20	19866	185.055437698624	1.4840829376949
20	20030	186.539520636319	0.035059670947998
20	20041	186.574580307267	0.022415557738627
20	20045	186.596995865006	0.71821950860768
20	20126	187.315215373614	7.0935213808133
20	20891	194.408736754427	0.23217405049064
20	20905	194.640910804918	0.92623510446917
20	21023	195.567145909387	1.3704873210927
20	21175	196.93763323048	0.22606131375429
20	21211	197.163694544234	0.58777424282355
20	21275	197.751468787058	2.3828580917296
20	21481	200.134326878788	0.64305443204784
20	21517	200.777381310836	0.59034082235252
20	21603	201.367722133189	0.13817325540346
20	21609	201.505895388592	0.63646794636058
20	21672	202.142363334953	0.96264719372939
20	21750	203.105010528682	0.55543850406459
20	21826	203.660449032747	0.020786728682804
20	21830	203.68123576143	3.104499325473
20	22151	206.785735086903	4.5707061945979
20	22653	211.356441281501	0.49783533209286
20	22721	211.854276613594	1.1121988767665
20	22820	212.96647549036	4.0039687711459
20	23250	216.970444261506	1.4296979678908
20	23389	218.400142229397	1.1791377260497
20	23560	219.579279955447	0.81627380901646
20	23652	220.395553764463	0.79012781592206
20	23733	221.185681580385	1.2613349750306
20	23855	222.447016555416	2.9043474997154
20	24181	225.351364055131	1.8085026981843
20	24380	227.159866753315	0.54618003986409
20	24450	227.706046793179	0.59786333889057
20	24523	228.30391013207	0.20842404976599
20	24549	228.512334181836	0.5384283425326
20	24574	229.050762524369	1.2090001548845
20	24686	230.259762679253	1.2789719943668
20	24845	231.53873467362	0.10029752027175
20	24846	231.639032193892	4.0540096269634
20	25263	235.693041820855	2.4647128471693
20	25569	238.157754668024	0.49203109192386
20	25645	238.649785759948	0.97433019614466
20	25780	239.624115956093	1.8435009794452
20	25997	241.467616935538	0.24293545443672
20	26029	241.710552389975	3.0016749280786
20	26361	244.712227318054	3.9975718913564
20	26823	248.70979920941	1.9566851203615
20	26982	250.666484329772	0.31606914238443
20	27016	250.982553472156	2.6716363950776
20	27272	253.654189867234	0.9715697089163
20	27349	254.62575957615	0.55219080387413
20	27410	255.177950380024	4.4975482567097
20	27930	259.675498636734	1.31546663712
20	28059	260.990965273854	1.2503990404133
20	28200	262.241364314267	0.97585650482321
20	28261	263.21722081909	2.3528947163741
20	28542	265.570115535464	0.12472144699349
20	28564	265.694836982457	5.4013568668477
20	29193	271.096193849305	1.3923922332835
20	29329	272.488586082588	0.88460988596331
20	29427	273.373195968551	2.0765056407877
20	29676	275.449701609339	0.49674389467572
20	29737	275.946445504015	2.4868681969387
20	29951	278.433313700954	2.3111212775429
20	30163	280.744434978497	0.67544755181741
20	30247	281.419882530314	0.99905018521014
20	30321	282.418932715524	2.1029065766395
20	30516	284.521839292163	5.4001409413713
20	31023	289.921980233534	11.154165853673
20	32127	301.076146087207	1.0027898424656
20	32205	302.078935929673	0.12658560959955
20	32226	302.205521539273	1.5070701581792
20	32421	303.712591697452	0.17234190931895
20	32453	303.884933606771	1.1517492625162
20	32541	305.036682869287	0.16970116581109
20	32543	305.206384035098	2.6217197541185
20	32837	307.828103789217	3.3038535723466
20	33226	311.131957361564	0.062699554864145
20	33237	311.194656916428	0.89102364684161
20	33359	312.08568056327	1.9966461773191
20	33583	314.082326740589	0.28605114583505
20	33622	314.368377886424	1.7898603741124
20	33779	316.158238260536	2.0540551611054
20	34004	318.212293421641	0.87387786247895
20	34094	319.08617128412	1.0834039921074
20	34192	320.169575276227	1.194223684231
20	34361	321.363798960458	2.6879871332813
20	34661	324.051786093739	3.0441879510536
20	34957	327.095974044793	2.8998760558968
20	35323	329.99585010069	0.42556310523906
20	35346	330.421413205929	0.75139240691157
20	35433	331.172805612841	2.2375382650163
20	35670	333.410343877857	5.0361573662579
20	36232	338.446501244115	0.29736075091467
20	36262	338.74386199503	3.3232325877288
20	36737	342.067094582759	1.3547616248676
20	36871	343.421856207627	1.2432819879401
20	36979	344.665138195567	3.9969728196842
20	37485	348.662111015251	1.3358285160474
20	37634	349.997939531298	2.3734690410728
20	37956	352.371408572371	0.99738170228296
20	38070	353.368790274654	0.04936060228103
20	38072	353.418150876935	0.027973721375868
20	38073	353.446124598311	2.8188341913504
20	38381	356.264958789661	1.81781843231
20	38580	358.082777221971	3.1823859008321
20	38985	361.265163122803	6.0521498171979
20	39606	367.317312940001	0.69668003497388
20	39659	368.013992974975	2.2493672700984
20	39853	370.263360245073	1.4622615331518
20	40003	371.725621778225	1.2916921717963
20	40160	373.017313950021	2.0772257347005
20	40389	375.094539684721	0.02371850691785
20	40396	375.118258191639	1.4855036291593
20	40534	376.603761820798	3.0568740480978
20	40861	379.660635868896	1.0357958472027
20	40965	380.696431716099	6.1473982666856
20	41610	386.843829982785	4.7835112636125
20	42057	391.627341246397	3.9408071769619
20	42541	395.568148423359	0.14477646132646
20	42556	395.712924884685	0.8086233426072
20	42663	396.521548227292	0.4049977630819
20	42695	396.926545990374	1.6510836256862
20	42882	398.57762961606	2.432082091889
21	1720	15.726320272327	0.17271879736636
21	1739	15.899039069693	3.9112597991854
21	2160	19.810298868878	0.035314093103192
21	2161	19.845612961981	8.8468081904643
21	3048	28.692421152445	1.156315780178
21	3196	29.848736932623	0.18445037535829
21	3224	30.033187307981	5.2914172395278
21	3763	35.324604547509	0.35954646250184
21	3806	35.684151010011	2.8895226212148
21	4085	38.573673631226	1.1250412451709
21	4188	39.698714876397	1.0693527057759
21	4304	40.768067582173	0.43377936597495
21	4349	41.201846948148	0.22435282924274
21	4399	41.426199777391	0.13621008532457
21	4431	41.562409862716	4.3432892711614
21	4872	45.905699133877	0.82652391551774
21	4955	46.732223049395	2.162926030992
21	5126	48.895149080387	6.5155894037706
21	6033	55.410738484158	2.9353975348582
21	6400	58.346136019016	1.6250789566647
21	6613	59.971214975681	0.20579655633306
21	6642	60.177011532014	0.81898147533781
21	6766	60.995993007352	3.5432893331568
21	7234	64.539282340509	5.7242300570957
21	7829	70.263512397605	0.59158787237163
21	7879	70.855100269977	1.3969278282992
21	8016	72.252028098276	6.5026636633655
21	8746	78.754691761641	0.74327175798603
21	8827	79.497963519627	1.6711924833723
21	8984	81.169156002999	0.98567956509915
21	9097	82.154835568098	0.3438192849024
21	9130	82.498654853	2.3084501480469
21	9352	84.807105001047	0.0030327408502045
21	9353	84.810137741897	0.47244763981213
21	9412	85.282585381709	1.035640855171
21	9497	86.31822623688	1.4081168696906
21	9662	87.726343106571	0.17266232674254
21	9700	87.899005433314	1.0236456744324
21	9833	88.922651107746	0.67848764909181
21	9904	89.601138756838	2.4220749802646
21	10207	92.023213737103	0.82438476332232
21	10271	92.847598500425	1.3593435471752
21	10395	94.2069420476	2.6096701393844
21	10720	96.816612186984	4.925043337902
21	11207	101.741655524886	1.3580911240896
21	11398	103.099746648976	0.64915464607831
21	11463	103.748901295054	6.0432763411474
21	12127	109.792177636201	0.050115798060448
21	12133	109.842293434261	0.64469021897459
21	12208	110.486983653236	5.2921670380314
21	12715	115.779150691267	0.97046083927666
21	12793	116.749611530544	1.2090739362195
21	12908	117.958685466764	1.9788013915477
21	13108	119.937486858312	0.11634780549908
21	13124	120.053834663811	0.17139729422541
21	13139	120.225231958036	0.027601971305972
21	13141	120.252833929342	1.5076222783776
21	13350	121.76045620772	1.4820635571934
21	13491	123.242519764913	1.0851775556671
21	13598	124.32769732058	0.31262220194274
21	13633	124.640319522523	1.6805188009526
21	13830	126.320838323476	0.043653083465361
21	13831	126.364491406941	2.229713351471
21	14021	128.594204758412	2.0114216208619
21	14223	130.605626379274	1.4323094295947
21	14369	132.037935808869	0.41484105010952
21	14392	132.452776858979	3.919716319997
21	14760	136.372493178976	4.3729603270204
21	15259	140.745453505996	1.1766467346113
21	15362	141.922100240607	0.044539254189169
21	15371	141.966639494796	1.5937935372016
21	15580	143.560433031998	0.9661469509397
21	15644	144.526579982938	3.457858884462
21	16007	147.9844388674	2.821723837337
21	16350	150.806162704737	1.763973450174
21	16508	152.570136154911	0.013753261388487
21	16514	152.583889416299	3.7148114961169
21	16848	156.298700912416	0.98126542240087
21	16959	157.279966334817	0.44638542989192
21	16988	157.726351764709	2.2576093298019
21	17214	159.983961094511	2.4432548432328
21	17486	162.427215937744	1.4035529656793
21	17618	163.830768903423	0.8994191743337
21	17720	164.730188077757	2.216115582345
21	17979	166.946303660102	0.58017967354626
21	18038	167.526483333648	2.513999132964
21	18248	170.040482466612	1.9786512393556
21	18396	172.019133705968	0.51852140678143
21	18462	172.537655112749	1.6485256888489
21	18661	174.186180801598	0.081722624848317
21	18664	174.267903426446	1.9659141367438
21	18883	176.23381756319	0.65004461035751
21	18954	176.883862173548	3.2297808295995
21	19270	180.113643003148	0.60601596582608
21	19339	180.719658968974	0.15187151268657
21	19370	180.871530481661	1.2423719789077
21	19492	182.113902460569	2.1066381665296
21	19729	184.220540627099	0.39406850092221
21	19788	184.614609128021	3.4589958296225
21	20176	188.073604957643	0.07374779937545
21	20190	188.147352757018	3.7080023059147
21	20636	191.855355062933	2.8362727170298
21	20912	194.691627779963	0.40537254414378
21	20960	195.097000324107	1.6400865651156
21	21159	196.737086889223	1.5520353525219
21	21326	198.289122241745	1.0975540549779
21	21432	199.386676296723	2.1502330425177
21	21610	201.536909339241	7.2586948036085
21	22398	208.795604142849	3.0428522801704
21	22715	211.838456423019	1.0629118838912
21	22814	212.90136830691	2.4307148815974
21	23083	215.332083188507	1.0438197053482
21	23202	216.375902893855	3.254841052511
21	23562	219.630743946366	1.2243619732045
21	23705	220.85510591957	0.76504886665128
21	23773	221.620154786221	1.9147755504041
21	23973	223.534930336625	1.0108889892895
21	24111	224.545819325914	0.043488957685112
21	24119	224.589308283599	3.0035300064414
21	24441	227.59283829004	1.9874962660336
21	24637	229.580334556074	2.0704042928651
21	24848	231.650738848939	0.84273001151323
21	24941	232.493468860452	1.1594160029948
21	25029	233.652884863447	0.37555276996359
21	25089	234.028437633411	0.45880804630301
21	25143	234.487245679714	0.11159129265296
21	25145	234.598836972367	0.30477816784302
21	25166	234.90361514021	1.1329574754543
21	25298	236.036572615664	0.78284708943247
21	25430	236.819419705096	0.018564475182708
21	25441	236.837984180279	0.73214232889655
21	25512	237.570126509176	2.6049147874439
21	25830	240.17504129662	1.0978589278954
21	25969	241.272900224515	5.2197817452506
21	26585	246.492681969766	7.4244005874422
21	27295	253.917082557208	3.0639535581212
21	27639	256.981036115329	0.98041370845338
21	27741	257.961449823782	3.4819909623257
21	28109	261.443440786108	0.66796724374527
21	28189	262.111408029853	2.3687655245323
21	28417	264.480173554385	2.075279367225
21	28653	266.55545292161	10.746146783627
21	29861	277.301599705237	3.4616934955838
21	30164	280.763293200821	2.9295540287067
21	30425	283.692847229528	3.55420397973
21	30748	287.247051209258	1.6182167526716
21	30902	288.86526796193	7.9475095200885
21	31685	296.812777482019	4.4482973722213
21	32152	301.26107485424	2.5564111295965
21	32442	303.817485983836	1.6908797283484
21	32597	305.508365712184	4.5414329300011
21	33096	310.049798642185	6.4957527981375
21	33813	316.545551440323	0.3106934544607
21	33865	316.856244894784	2.1448850396233
21	34088	319.001129934407	0.1971540359042
21	34105	319.198283970311	0.15392408003468
21	34107	319.352208050346	0.39378827799119
21	34146	319.745996328337	0.86189942636653
21	34271	320.607895754704	2.7576705251308
21	34601	323.365566279835	0.38157927647891
21	34633	323.747145556314	2.9686221247375
21	34894	326.715767681051	4.5895534527803
21	35441	331.305321133831	0.074260638775103
21	35449	331.379581772606	0.13269228818661
21	35473	331.512274060793	3.3866517491402
21	35848	334.898925809933	8.547326830535
21	36877	343.446252640468	2.4205179097824
21	37126	345.86677055025	0.60923666362345
21	37168	346.476007213873	3.1730717969742
21	37580	349.649079010847	0.99793628565991
21	37736	350.647015296507	0.50343051580728
21	37814	351.150445812314	0.19768202171389
21	37856	351.348127834028	2.6270215959768
21	38112	353.975149430005	1.1328958225953
21	38285	355.1080452526	0.63361693308524
21	38326	355.741662185685	0.14440056979844
21	38338	355.886062755483	0.68915194089198
21	38408	356.575214696375	2.9384810942657
21	38764	359.513695790641	0.67430993684718
21	38821	360.188005727488	2.3284744634366
21	39101	362.516480190925	0.38055816048302
21	39124	362.897038351408	1.4898155598605
21	39301	364.386853911269	1.4196647502539
21	39450	365.806518661523	4.2035441707964
21	39805	370.010062832319	3.2276871455938
21	40179	373.237749977913	0.46385096272961
21	40252	373.701600940643	0.35531428512246
21	40310	374.056915225765	2.8615424494309
21	40571	376.918457675196	3.3381449407182
21	40922	380.256602615914	1.7797588390343
21	41118	382.036361454948	3.1515480919868
21	41431	385.187909546935	0.45122326605171
21	41479	385.639132812987	2.1346677651047
21	41672	387.773800578092	1.5928065747693
21	41815	389.366607152861	1.9387057146339
21	42017	391.305312867495	1.1010506086026
21	42169	392.406363476098	0.63516220069466
21	42225	393.041525676793	1.1866030987077
21	42384	394.228128775501	2.3812269037467
21	42665	396.609355679248	0.7297286473255
21	42756	397.339084326574	2.0729457992431
21	42993	399.412030125817	3.455800295144

