version 2
run Nonmonitoring-exponential-514-20210224-17:49:30-27052
attr configname Nonmonitoring-exponential
attr datetime 20210224-17:49:30
attr experiment Nonmonitoring-exponential
attr inifile aerocom.ini
attr iterationvars $0=50
attr iterationvarsf 50-
attr measurement $0=50
attr network Aerocom
attr processid 27052
attr repetition 14
attr replication #14
attr resultdir results
attr runnumber 514
attr seedset 14
param **.t 2s
param **.k 50ms
param **.X 0.05s
param **.m 1s
param **.tDistribution "\"exponential\""
param **.operationMode 1
param **.s "70 byte"
param **.dimPoolMax 10000
param **.dimPoolMin 8000
param **.nDL 16
param **.nA 1
param **.DLMaxCapacity 0
param **.trasmitting false

vector 0 Aerocom.aircraft[0].packetGenerator arrivalTime:vector ETV
attr "" ""
attr source computeArrivalTime
vector 1 Aerocom.aircraft[0].linkSelector waitingTime:vector ETV
attr "" ""
attr source computeWaitingTime
vector 2 Aerocom.aircraft[0].linkSelector queueLength:vector ETV
attr "" ""
attr source computeQueueLength
vector 3 Aerocom.aircraft[0].dataLink[15] actualCapacity:vector ETV
attr "" ""
attr source computeActualCapacity
vector 4 Aerocom.aircraft[0].linkSelector serviceTime:vector ETV
attr "" ""
attr source computeServiceTime
vector 5 Aerocom.aircraft[0].linkSelector responseTime:vector ETV
attr "" ""
attr source computeResponseTime
vector 6 Aerocom.aircraft[0].dataLink[10] tDistribution:vector ETV
attr "" ""
attr source computeTDistribution
vector 7 Aerocom.aircraft[0].dataLink[14] tDistribution:vector ETV
attr "" ""
attr source computeTDistribution
vector 8 Aerocom.aircraft[0].dataLink[9] tDistribution:vector ETV
attr "" ""
attr source computeTDistribution
vector 9 Aerocom.aircraft[0].dataLink[0] tDistribution:vector ETV
attr "" ""
attr source computeTDistribution
vector 10 Aerocom.aircraft[0].dataLink[6] tDistribution:vector ETV
attr "" ""
attr source computeTDistribution
vector 11 Aerocom.aircraft[0].dataLink[4] tDistribution:vector ETV
attr "" ""
attr source computeTDistribution
vector 12 Aerocom.aircraft[0].dataLink[15] tDistribution:vector ETV
attr "" ""
attr source computeTDistribution
vector 13 Aerocom.aircraft[0].dataLink[3] tDistribution:vector ETV
attr "" ""
attr source computeTDistribution
vector 14 Aerocom.aircraft[0].dataLink[8] tDistribution:vector ETV
attr "" ""
attr source computeTDistribution
vector 15 Aerocom.aircraft[0].dataLink[1] tDistribution:vector ETV
attr "" ""
attr source computeTDistribution
vector 16 Aerocom.aircraft[0].dataLink[2] tDistribution:vector ETV
attr "" ""
attr source computeTDistribution
vector 17 Aerocom.aircraft[0].dataLink[13] tDistribution:vector ETV
attr "" ""
attr source computeTDistribution
vector 18 Aerocom.aircraft[0].dataLink[11] tDistribution:vector ETV
attr "" ""
attr source computeTDistribution
vector 19 Aerocom.aircraft[0].dataLink[7] tDistribution:vector ETV
attr "" ""
attr source computeTDistribution
vector 20 Aerocom.aircraft[0].dataLink[12] tDistribution:vector ETV
attr "" ""
attr source computeTDistribution
vector 21 Aerocom.aircraft[0].dataLink[5] tDistribution:vector ETV
attr "" ""
attr source computeTDistribution
0	1151	10.015217903719	0.070437457544
0	1156	10.085655361263	0.011348871409
0	1161	10.097004232672	0.012990257436
0	1167	10.109994490108	0.143106920325
0	1173	10.253101410433	0.004005214077
0	1175	10.25710662451	0.04567292055
0	1184	10.30277954506	0.017107015256
0	1189	10.319886560316	0.059336931154
0	1194	10.37922349147	0.008790417825
0	1199	10.388013909295	0.106208490444
0	1204	10.494222399739	0.132747501151
0	1210	10.62696990089	0.048955409306
0	1216	10.675925310196	0.082544354178
0	1221	10.758469664374	0.017522836421
0	1226	10.775992500795	0.050174710181
0	1231	10.826167210976	0.005574197841
0	1233	10.831741408817	0.102575985656
0	1241	10.934317394473	0.030489459107
0	1246	10.96480685358	0.081398448224
0	1251	11.046205301804	0.012323195877
0	1256	11.058528497681	0.010324773785
0	1261	11.068853271466	0.02693639361
0	1266	11.095789665076	0.111540670341
0	1273	11.207330335417	0.107398980824
0	1278	11.314729316241	0.038754995089
0	1285	11.35348431133	0.019603636056
0	1290	11.373087947386	0.08236741584
0	1298	11.455455363226	0.00651044324
0	1301	11.461965806466	0.113212134212
0	1309	11.575177940678	0.022025957317
0	1314	11.597203897995	0.019136535428
0	1319	11.616340433423	0.118665641717
0	1325	11.73500607514	0.005829607892
0	1327	11.740835683032	0.01588179531
0	1335	11.756717478342	0.012934337356
0	1340	11.769651815698	0.052162207972
0	1345	11.82181402367	0.027852885226
0	1350	11.849666908896	2.6025597e-05
0	1352	11.849692934493	0.085191486826
0	1360	11.934884421319	0.021737141365
0	1366	11.956621562684	0.098567248447
0	1372	12.055188811131	0.018176437353
0	1377	12.073365248484	0.000348820468
0	1379	12.073714068952	0.008995574198
0	1384	12.08270964315	0.035743807727
0	1393	12.118453450877	0.038188077833
0	1399	12.15664152871	0.027013665896
0	1404	12.183655194606	0.0331629145
0	1409	12.216818109106	0.012558366642
0	1414	12.229376475748	0.058953609367
0	1419	12.288330085115	0.006384019701
0	1421	12.294714104816	0.015695302296
0	1429	12.310409407112	0.020595429049
0	1434	12.331004836161	0.013993997455
0	1439	12.344998833616	0.143156057891
0	1446	12.488154891507	0.009213635702
0	1451	12.497368527209	0.019519190385
0	1456	12.516887717594	0.012343914172
0	1461	12.529231631766	0.036572640606
0	1467	12.565804272372	0.04083380988
0	1472	12.606638082252	0.060704348651
0	1477	12.667342430903	0.02586198859
0	1482	12.693204419493	0.022598725203
0	1487	12.715803144696	0.003354675604
0	1489	12.7191578203	0.178389910163
0	1497	12.897547730463	0.014645814862
0	1502	12.912193545325	0.164100496668
0	1507	13.076294041993	0.014176273723
0	1512	13.090470315716	0.014503064854
0	1517	13.10497338057	0.059586448435
0	1522	13.164559829005	0.034382963419
0	1528	13.198942792424	0.062286739134
0	1533	13.261229531558	0.017896523191
0	1538	13.279126054749	0.008013539321
0	1543	13.28713959407	0.01676248356
0	1548	13.30390207763	0.304630368028
0	1555	13.608532445658	0.001879223978
0	1557	13.610411669636	0.015515543554
0	1565	13.62592721319	0.047024603094
0	1570	13.672951816284	0.187782922445
0	1576	13.860734738729	0.034925981357
0	1581	13.895660720086	0.026469597414
0	1586	13.9221303175	0.002642554614
0	1588	13.924772872114	0.001680462614
0	1590	13.926453334728	0.016331295937
0	1599	13.942784630665	0.021161441278
0	1607	13.963946071943	0.119443044978
0	1612	14.083389116921	0.050304117998
0	1618	14.133693234919	0.013693027549
0	1623	14.147386262468	0.057082063531
0	1628	14.204468325999	0.007826542832
0	1633	14.212294868831	0.037850652061
0	1639	14.250145520892	0.033613605398
0	1645	14.28375912629	0.029690724464
0	1650	14.313449850754	0.212201859927
0	1657	14.525651710681	0.04024787686
0	1662	14.565899587541	0.013857240863
0	1667	14.579756828404	0.044909861057
0	1673	14.624666689461	0.05575775053
0	1680	14.680424439991	0.004215478369
0	1682	14.68463991836	0.071694381223
0	1691	14.756334299583	0.02307435666
0	1696	14.779408656243	0.013566658895
0	1701	14.792975315138	0.013864145686
0	1706	14.806839460824	0.065137446609
0	1712	14.871976907433	0.081263060862
0	1717	14.953239968295	0.02292614011
0	1722	14.976166108405	0.031772283052
0	1727	15.007938391457	0.050025186992
0	1732	15.057963578449	0.204987365765
0	1738	15.262950944214	0.05019189111
0	1744	15.313142835324	0.025443413976
0	1749	15.3385862493	0.038369262093
0	1755	15.376955511393	0.084758472583
0	1760	15.461713983976	0.004731457806
0	1762	15.466445441782	0.080059878439
0	1770	15.546505320221	0.090182239371
0	1776	15.636687559592	0.008168172738
0	1781	15.64485573233	0.019340514867
0	1787	15.664196247197	0.035484033569
0	1792	15.699680280766	0.010321605083
0	1797	15.710001885849	0.059505600522
0	1804	15.769507486371	0.002081487996
0	1806	15.771588974367	0.097722909289
0	1814	15.869311883656	0.044688920474
0	1819	15.91400080413	0.019723210013
0	1825	15.933724014143	0.056592587398
0	1830	15.990316601541	0.012438522157
0	1835	16.002755123698	0.000836347322
0	1837	16.00359147102	0.06209230725
0	1845	16.06568377827	0.035881528657
0	1850	16.101565306927	0.082905430189
0	1855	16.184470737116	0.012841207456
0	1860	16.197311944572	0.02143663457
0	1865	16.218748579142	0.051806217993
0	1871	16.270554797135	0.005056061883
0	1873	16.275610859018	0.00958021097
0	1878	16.285191069988	0.141108499374
0	1886	16.426299569362	0.058710625899
0	1892	16.485010195261	0.025339357788
0	1898	16.510349553049	0.024447935323
0	1903	16.534797488372	0.036464770805
0	1908	16.571262259177	0.138017189086
0	1913	16.709279448263	0.090918553848
0	1918	16.800198002111	0.00739722038
0	1921	16.807595222491	0.056302789536
0	1929	16.863898012027	0.020856621761
0	1935	16.884754633788	0.066442067397
0	1940	16.951196701185	0.006022214479
0	1942	16.957218915664	0.011727392808
0	1950	16.968946308472	0.12930952058
0	1956	17.098255829052	0.038984076216
0	1962	17.137239905268	0.104916685997
0	1967	17.242156591265	0.059500930842
0	1972	17.301657522107	0.01491636842
0	1978	17.316573890527	0.012974172089
0	1983	17.329548062616	0.053938137685
0	1988	17.383486200301	0.009615862858
0	1993	17.393102063159	0.084974203222
0	1998	17.478076266381	0.201338995026
0	2005	17.679415261407	0.04050661823
0	2010	17.719921879637	0.036349253101
0	2015	17.756271132738	0.037713970971
0	2020	17.793985103709	0.015111311508
0	2025	17.809096415217	0.013843851798
0	2031	17.822940267015	0.279349317148
0	2036	18.102289584163	0.00488630682
0	2038	18.107175890983	0.168223052056
0	2047	18.275398943039	0.113756160482
0	2053	18.389155103521	0.040855476325
0	2058	18.430010579846	0.115338718548
0	2063	18.545349298394	0.107123900401
0	2069	18.652473198795	0.050133496608
0	2075	18.702606695403	0.010456307224
0	2080	18.713063002627	0.020702325474
0	2085	18.733765328101	0.016346886373
0	2090	18.750112214474	0.021478380425
0	2095	18.771590594899	0.060258313937
0	2100	18.831848908836	0.064723270973
0	2105	18.896572179809	0.093755251456
0	2110	18.990327431265	0.113704864581
0	2115	19.104032295846	0.097009826538
0	2121	19.201042122384	0.109056629507
0	2126	19.310098751891	0.025918376815
0	2131	19.336017128706	0.075678109311
0	2137	19.411695238017	0.109360288966
0	2143	19.521055526983	0.051365534541
0	2149	19.572421061524	0.095166445208
0	2155	19.667587506732	0.004394586056
0	2157	19.671982092788	0.137159261063
0	2167	19.809141353851	0.008814710482
0	2172	19.817956064333	0.076935145162
0	2180	19.894891209495	0.114411523126
0	2187	20.009302732621	0.055280070563
0	2193	20.064582803184	0.046624697361
0	2198	20.111207500545	0.043456836718
0	2205	20.154664337263	0.000461980164
0	2207	20.155126317427	0.023283274175
0	2216	20.178409591602	0.005349845058
0	2219	20.18375943666	0.140781862267
0	2227	20.324541298927	0.054458118356
0	2233	20.378999417283	0.181840623336
0	2241	20.560840040619	0.000253722074
0	2243	20.561093762693	0.016698237574
0	2251	20.577792000267	0.0087657911
0	2256	20.586557791367	0.018218355452
0	2261	20.604776146819	0.039784892345
0	2266	20.644561039164	0.033239041699
0	2273	20.677800080863	0.058865764584
0	2278	20.736665845447	0.029748794753
0	2283	20.7664146402	0.052772073544
0	2289	20.819186713744	0.259765187267
0	2295	21.078951901011	0.012697493401
0	2300	21.091649394412	0.009674701741
0	2305	21.101324096153	0.062270864422
0	2312	21.163594960575	0.000912035875
0	2314	21.16450699645	0.013541187711
0	2319	21.178048184161	0.034050429195
0	2327	21.212098613356	0.019681745692
0	2332	21.231780359048	0.00985081227
0	2337	21.241631171318	0.068617877917
0	2343	21.310249049235	0.022822300336
0	2348	21.333071349571	0.052438690954
0	2353	21.385510040525	0.068162207189
0	2358	21.453672247714	0.094597802555
0	2363	21.548270050269	0.063816408959
0	2368	21.612086459228	0.053590664617
0	2373	21.665677123845	0.018412859052
0	2378	21.684089982897	0.042002214811
0	2383	21.726092197708	0.039103316994
0	2388	21.765195514702	0.004917853005
0	2390	21.770113367707	0.035546628368
0	2399	21.805659996075	0.022920815317
0	2404	21.828580811392	0.050575781167
0	2409	21.879156592559	0.015408007615
0	2414	21.894564600174	0.014414901217
0	2419	21.908979501391	0.013985010093
0	2424	21.922964511484	0.044564158086
0	2430	21.96752866957	0.180615458953
0	2438	22.148144128523	0.192907187089
0	2443	22.341051315612	0.024969374783
0	2448	22.366020690395	0.033348846475
0	2453	22.39936953687	0.1113027597
0	2458	22.51067229657	0.118275597489
0	2466	22.628947894059	0.049866719669
0	2471	22.678814613728	0.028492910136
0	2478	22.707307523864	0.079191262056
0	2483	22.78649878592	0.0215451776
0	2488	22.80804396352	0.034921766415
0	2494	22.842965729935	0.051796434022
0	2499	22.894762163957	0.043007795286
0	2504	22.937769959243	0.055270375084
0	2511	22.993040334327	0.033914671744
0	2516	23.026955006071	0.099816661915
0	2521	23.126771667986	0.010860744718
0	2526	23.137632412704	0.013080270118
0	2532	23.150712682822	0.064088090658
0	2537	23.21480077348	0.03457676215
0	2542	23.24937753563	0.016478868413
0	2547	23.265856404043	0.042432094795
0	2553	23.308288498838	0.001230823784
0	2555	23.309519322622	0.073170438311
0	2563	23.382689760933	0.051848439794
0	2569	23.434538200727	0.002229149664
0	2571	23.436767350391	0.009746678287
0	2576	23.446514028678	0.260611629158
0	2585	23.707125657836	0.141054159702
0	2593	23.848179817538	0.031738679333
0	2598	23.879918496871	0.153878125454
0	2608	24.033796622325	0.016394680584
0	2614	24.050191302909	0.123175493101
0	2620	24.17336679601	0.10749063413
0	2626	24.28085743014	0.02311436942
0	2633	24.30397179956	0.068860543079
0	2639	24.372832342639	0.000778865503
0	2641	24.373611208142	0.15295686897
0	2650	24.526568077112	0.131776174883
0	2656	24.658344251995	0.02007990284
0	2661	24.678424154835	0.027946913818
0	2666	24.706371068653	0.040233550598
0	2671	24.746604619251	0.170042101395
0	2678	24.916646720646	0.042465782786
0	2683	24.959112503432	0.165686764408
0	2690	25.12479926784	0.19643705803
0	2695	25.32123632587	0.095869350668
0	2702	25.417105676538	0.003916797239
0	2704	25.421022473777	0.017438803742
0	2712	25.438461277519	0.018242342368
0	2717	25.456703619887	0.024314596868
0	2722	25.481018216755	0.01059231976
0	2727	25.491610536515	0.095236333673
0	2732	25.586846870188	0.015631184195
0	2737	25.602478054383	0.019057311835
0	2742	25.621535366218	0.033206598484
0	2748	25.654741964702	0.009285931082
0	2754	25.664027895784	0.023315472409
0	2760	25.687343368193	0.040686849902
0	2766	25.728030218095	0.025100848533
0	2771	25.753131066628	0.137564674085
0	2779	25.890695740713	0.092963324538
0	2786	25.983659065251	0.059541279706
0	2791	26.043200344957	0.132975025456
0	2799	26.176175370413	0.04220561695
0	2804	26.218380987363	0.003650912399
0	2806	26.222031899762	0.005111410078
0	2811	26.22714330984	0.011717727834
0	2816	26.238861037674	0.047726536064
0	2824	26.286587573738	0.055606691611
0	2829	26.342194265349	0.230528498539
0	2835	26.572722763888	0.022208746848
0	2840	26.594931510736	0.007546029236
0	2842	26.602477539972	0.014662453788
0	2850	26.61713999376	0.036524766649
0	2855	26.653664760409	0.01749848685
0	2860	26.671163247259	0.10493043101
0	2865	26.776093678269	0.019471032912
0	2870	26.795564711181	0.067501711917
0	2876	26.863066423098	0.094414550879
0	2882	26.957480973977	0.059703721097
0	2889	27.017184695074	0.007345094929
0	2892	27.024529790003	0.060614377315
0	2900	27.085144167318	0.061706310681
0	2907	27.146850477999	0.022274617067
0	2913	27.169125095066	0.040239701373
0	2918	27.209364796439	0.017378104518
0	2923	27.226742900957	0.017585090788
0	2928	27.244327991745	0.082868725886
0	2933	27.327196717631	0.027217470636
0	2938	27.354414188267	0.083066409574
0	2943	27.437480597841	0.014799621473
0	2948	27.452280219314	0.100897502757
0	2954	27.553177722071	0.047274869894
0	2959	27.600452591965	0.122230799352
0	2965	27.722683391317	0.004255795973
0	2967	27.72693918729	0.035804662438
0	2975	27.762743849728	0.000259917423
0	2977	27.763003767151	0.034809218969
0	2985	27.79781298612	0.049428881005
0	2990	27.847241867125	0.080047496949
0	2997	27.927289364074	0.010800574321
0	3002	27.938089938395	0.052485953669
0	3007	27.990575892064	0.003679146991
0	3009	27.994255039055	0.060527533141
0	3017	28.054782572196	0.025273982309
0	3022	28.080056554505	0.07943097451
0	3028	28.159487529015	0.002605129902
0	3030	28.162092658917	0.110366171979
0	3038	28.272458830896	0.10884925696
0	3044	28.381308087856	0.020624120728
0	3049	28.401932208584	0.001400264254
0	3051	28.403332472838	0.023546839594
0	3059	28.426879312432	0.043240079119
0	3065	28.470119391551	0.004934801792
0	3067	28.475054193343	0.02885487128
0	3075	28.503909064623	0.043170701344
0	3080	28.547079765967	0.055741068752
0	3086	28.602820834719	0.001830205337
0	3088	28.604651040056	0.019886207454
0	3096	28.62453724751	0.031330347824
0	3101	28.655867595334	0.008423395275
0	3103	28.664290990609	0.039114729248
0	3111	28.703405719857	0.200429153852
0	3118	28.903834873709	0.016881533035
0	3123	28.920716406744	0.091296898584
0	3130	29.012013305328	0.044681626435
0	3136	29.056694931763	0.098450360587
0	3143	29.15514529235	0.001548753261
0	3145	29.156694045611	0.014400864029
0	3150	29.17109490964	0.001903175179
0	3155	29.172998084819	0.001980445405
0	3157	29.174978530224	0.086467568168
0	3168	29.261446098392	0.018067544045
0	3173	29.279513642437	0.02232925128
0	3179	29.301842893717	0.038510313612
0	3184	29.340353207329	0.006794452286
0	3187	29.347147659615	0.019774593245
0	3195	29.36692225286	0.036932678768
0	3200	29.403854931628	0.087974973115
0	3205	29.491829904743	0.073482397595
0	3210	29.565312302338	0.015841328567
0	3215	29.581153630905	0.012155899876
0	3221	29.593309530781	0.167981416081
0	3228	29.761290946862	0.048760980605
0	3234	29.810051927467	0.030556720341
0	3239	29.840608647808	0.004460551145
0	3241	29.845069198953	0.092265315297
0	3250	29.93733451425	0.002653254866
0	3252	29.939987769116	0.010807157896
0	3259	29.950794927012	0.037895447176
0	3267	29.988690374188	0.026496506901
0	3272	30.015186881089	0.038895521922
0	3277	30.054082403011	0.06011740732
0	3282	30.114199810331	0.050726872974
0	3287	30.164926683305	0.007445485391
0	3289	30.172372168696	0.064748028773
0	3298	30.237120197469	0.007121135516
0	3300	30.244241332985	0.186177841263
0	3311	30.430419174248	0.1745619044
0	3317	30.604981078648	0.036314556061
0	3322	30.641295634709	0.062692320938
0	3328	30.703987955647	0.019500986181
0	3333	30.723488941828	0.002096730404
0	3335	30.725585672232	0.079282699171
0	3344	30.804868371403	0.025443119673
0	3350	30.830311491076	0.015792573529
0	3355	30.846104064605	0.028415740365
0	3360	30.87451980497	0.02889917163
0	3365	30.9034189766	0.068137222153
0	3370	30.971556198753	0.004085258606
0	3372	30.975641457359	0.014441505425
0	3380	30.990082962784	0.001283880454
0	3382	30.991366843238	0.010187496031
0	3387	31.001554339269	0.16436900159
0	3395	31.165923340859	0.004216546837
0	3397	31.170139887696	0.090388382694
0	3405	31.26052827039	0.027958311165
0	3410	31.288486581555	0.059532136103
0	3415	31.348018717658	0.058317781031
0	3421	31.406336498689	0.026292982581
0	3427	31.43262948127	0.002997776978
0	3429	31.435627258248	0.009515326747
0	3434	31.445142584995	0.123381084329
0	3444	31.568523669324	0.008506036883
0	3449	31.577029706207	0.029201387725
0	3455	31.606231093932	0.014400299353
0	3460	31.620631393285	0.013707854918
0	3465	31.634339248203	0.039839533087
0	3470	31.67417878129	0.004928806291
0	3472	31.679107587581	0.062692464762
0	3481	31.741800052343	0.010097609008
0	3486	31.751897661351	0.0539695167
0	3493	31.805867178051	0.136372354043
0	3499	31.942239532094	0.016420613063
0	3504	31.958660145157	0.05084294119
0	3509	32.009503086347	0.154905174532
0	3517	32.164408260879	0.036355497924
0	3522	32.200763758803	0.066950869576
0	3528	32.267714628379	0.05351747332
0	3533	32.321232101699	0.040411524516
0	3539	32.361643626215	0.028606061115
0	3544	32.39024968733	0.047301523531
0	3549	32.437551210861	0.065473948003
0	3554	32.503025158864	0.027201893687
0	3559	32.530227052551	0.0024446051
0	3561	32.532671657651	0.014233064504
0	3569	32.546904722155	0.041739824716
0	3574	32.588644546871	0.022000706646
0	3580	32.610645253517	0.008637165521
0	3585	32.619282419038	0.070909092395
0	3590	32.690191511433	0.006401024711
0	3593	32.696592536144	0.00072490414
0	3595	32.697317440284	0.020918374782
0	3606	32.718235815066	0.006169019745
0	3608	32.724404834811	0.004814481913
0	3613	32.729219316724	0.00235471886
0	3615	32.731574035584	0.004944463373
0	3620	32.736518498957	0.002079072669
0	3622	32.738597571626	0.01865570285
0	3630	32.757253274476	0.096710150203
0	3641	32.853963424679	0.194392209487
0	3647	33.048355634166	0.060812031111
0	3653	33.109167665277	0.009638614839
0	3658	33.118806280116	0.032139229952
0	3663	33.150945510068	0.00086550315
0	3665	33.151811013218	0.00514784593
0	3667	33.156958859148	0.072061699008
0	3680	33.229020558156	0.033825898042
0	3685	33.262846456198	0.082230715072
0	3691	33.34507717127	0.032072516492
0	3696	33.377149687762	0.021255667884
0	3703	33.398405355646	0.009509735431
0	3708	33.407915091077	0.03124395145
0	3713	33.439159042527	0.028444956734
0	3718	33.467603999261	0.052458785331
0	3723	33.520062784592	0.025416831125
0	3728	33.545479615717	0.002462607128
0	3730	33.547942222845	0.047836120998
0	3738	33.595778343843	0.148939561097
0	3743	33.74471790494	0.050405726024
0	3749	33.795123630964	0.108877151247
0	3754	33.904000782211	0.002318116111
0	3756	33.906318898322	0.015115671192
0	3764	33.921434569514	0.023469200782
0	3769	33.944903770296	0.000771143048
0	3771	33.945674913344	0.049156249588
0	3779	33.994831162932	0.135479801155
0	3785	34.130310964087	0.03497197284
0	3790	34.165282936927	0.034761455789
0	3796	34.200044392716	0.097067471259
0	3803	34.297111863975	0.038758816621
0	3808	34.335870680596	0.053748737593
0	3813	34.389619418189	0.057594921158
0	3818	34.447214339347	0.008892643206
0	3823	34.456106982553	0.047836260824
0	3829	34.503943243377	0.003659121723
0	3831	34.5076023651	0.144023490163
0	3840	34.651625855263	0.051419707088
0	3845	34.703045562351	0.144345325884
0	3851	34.847390888235	0.001343453493
0	3853	34.848734341728	0.100945151299
0	3862	34.949679493027	0.044067369189
0	3867	34.993746862216	0.050585540564
0	3874	35.04433240278	0.140862772841
0	3879	35.185195175621	0.08070978434
0	3884	35.265904959961	0.042839122315
0	3889	35.308744082276	0.056531213722
0	3894	35.365275295998	0.024565034586
0	3899	35.389840330584	0.042591560382
0	3904	35.432431890966	0.051541358639
0	3909	35.483973249605	0.006876990771
0	3911	35.490850240376	0.030647798145
0	3919	35.521498038521	0.083354458053
0	3928	35.604852496574	0.039440717817
0	3933	35.644293214391	0.08591786853
0	3939	35.730211082921	0.141906354124
0	3945	35.872117437045	0.049166909192
0	3951	35.921284346237	0.024396375908
0	3956	35.945680722145	0.08585862793
0	3961	36.031539350075	0.162454586822
0	3967	36.193993936897	0.052703666941
0	3973	36.246697603838	0.117878809482
0	3980	36.36457641332	0.011576705235
0	3985	36.376153118555	0.010894813079
0	3990	36.387047931634	0.016007586511
0	3995	36.403055518145	0.003594207829
0	3997	36.406649725974	0.012077414303
0	4005	36.418727140277	0.005311267006
0	4007	36.424038407283	0.023681235763
0	4015	36.447719643046	0.000919494389
0	4017	36.448639137435	0.001987125646
0	4019	36.450626263081	0.00496025056
0	4024	36.455586513641	0.048149975353
0	4035	36.503736488994	0.057443743307
0	4041	36.561180232301	0.020515407296
0	4046	36.581695639597	0.003692481285
0	4048	36.585388120882	0.0533153832
0	4056	36.638703504082	0.019207859324
0	4061	36.657911363406	0.024338906586
0	4066	36.682250269992	0.093176302244
0	4072	36.775426572236	0.057224488108
0	4078	36.832651060344	0.001177350327
0	4080	36.833828410671	0.02082311052
0	4088	36.854651521191	0.084226524849
0	4094	36.93887804604	0.0151022044
0	4099	36.95398025044	0.016554173214
0	4105	36.970534423654	0.034262666439
0	4110	37.004797090093	0.006287505738
0	4113	37.011084595831	0.05902752297
0	4121	37.070112118801	0.059657770762
0	4127	37.129769889563	0.021411355687
0	4132	37.15118124525	0.049569958258
0	4137	37.200751203508	0.137952556632
0	4142	37.33870376014	0.104970793246
0	4151	37.443674553386	0.00199873885
0	4153	37.445673292236	0.066414678482
0	4161	37.512087970718	0.027059605293
0	4166	37.539147576011	0.08134978965
0	4172	37.620497365661	0.171449845541
0	4178	37.791947211202	0.01656669322
0	4183	37.808513904422	0.039700544725
0	4189	37.848214449147	0.009766664738
0	4194	37.857981113885	0.027536476441
0	4201	37.885517590326	0.069437819324
0	4207	37.95495540965	0.042026738779
0	4212	37.996982148429	0.08221045992
0	4217	38.079192608349	0.042892196736
0	4223	38.122084805085	0.232850235418
0	4230	38.354935040503	0.065772740293
0	4236	38.420707780796	0.026603967924
0	4242	38.44731174872	0.006830505055
0	4244	38.454142253775	0.023262195765
0	4253	38.47740444954	0.014385200112
0	4258	38.491789649652	0.074897724512
0	4264	38.566687374164	0.043439834296
0	4269	38.61012720846	0.020836683463
0	4275	38.630963891923	0.100914163381
0	4282	38.731878055304	0.133506898073
0	4289	38.865384953377	0.041261603048
0	4294	38.906646556425	0.097741957559
0	4300	39.004388513984	0.013629615498
0	4305	39.018018129482	0.028017780355
0	4311	39.046035909837	0.056947466825
0	4316	39.102983376662	0.069489235279
0	4321	39.172472611941	0.067336139312
0	4326	39.239808751253	0.070231650119
0	4332	39.310040401372	0.013605934111
0	4337	39.323646335483	0.005441875887
0	4339	39.32908821137	0.023718970347
0	4347	39.352807181717	0.116422283912
0	4355	39.469229465629	0.038213631235
0	4361	39.507443096864	0.035185374796
0	4366	39.54262847166	0.034314655071
0	4371	39.576943126731	0.087566628046
0	4376	39.664509754777	0.02468352174
0	4381	39.689193276517	0.019286771505
0	4386	39.708480048022	0.0176651155
0	4391	39.726145163522	0.112939528268
0	4397	39.83908469179	0.00526718626
0	4399	39.84435187805	0.024649422975
0	4407	39.869001301025	0.002748438738
0	4409	39.871749739763	0.000544840099
0	4411	39.872294579862	0.159153113572
0	4422	40.031447693434	0.117895362497
0	4428	40.149343055931	0.093912670041
0	4433	40.243255725972	0.004786280523
0	4435	40.248042006495	0.021917899033
0	4443	40.269959905528	0.019232681248
0	4448	40.289192586776	0.157096762732
0	4453	40.446289349508	0.149848617141
0	4459	40.596137966649	0.056469541943
0	4464	40.652607508592	0.150397480672
0	4471	40.803004989264	0.032939311868
0	4476	40.835944301132	0.042599864613
0	4482	40.878544165745	0.033964744296
0	4487	40.912508910041	0.049961504378
0	4492	40.962470414419	0.004347900449
0	4494	40.966818314868	0.029750733541
0	4502	40.996569048409	0.004809256153
0	4504	41.001378304562	0.017351138653
0	4512	41.018729443215	0.046120587106
0	4517	41.064850030321	0.019924316836
0	4522	41.084774347157	0.040338537264
0	4528	41.125112884421	0.055816179679
0	4534	41.1809290641	0.011959066973
0	4539	41.192888131073	0.069791892401
0	4548	41.262680023474	0.146119018023
0	4555	41.408799041497	0.078409770643
0	4562	41.48720881214	0.076001814071
0	4568	41.563210626211	0.07794155272
0	4573	41.641152178931	0.006021711252
0	4575	41.647173890183	0.004781847099
0	4580	41.651955737282	0.133631093107
0	4588	41.785586830389	0.034102479318
0	4593	41.819689309707	0.18296256461
0	4599	42.002651874317	0.002964085003
0	4601	42.00561595932	0.275220861544
0	4610	42.280836820864	0.039873066514
0	4615	42.320709887378	0.002874631807
0	4617	42.323584519185	0.029127763341
0	4625	42.352712282526	0.066786821474
0	4631	42.419499104	0.109330933681
0	4637	42.528830037681	0.039473628924
0	4642	42.568303666605	0.021609580748
0	4648	42.589913247353	0.061180124836
0	4654	42.651093372189	0.006225298693
0	4657	42.657318670882	0.173130154628
0	4666	42.83044882551	0.007715382577
0	4671	42.838164208087	0.058242413502
0	4677	42.896406621589	0.071671526486
0	4683	42.968078148075	0.090689173987
0	4689	43.058767322062	0.048145283477
0	4695	43.106912605539	0.100820974095
0	4700	43.207733579634	0.005330435627
0	4703	43.213064015261	0.091156551846
0	4711	43.304220567107	0.004392775986
0	4713	43.308613343093	0.027764262786
0	4721	43.336377605879	0.060360423773
0	4726	43.396738029652	0.012588496371
0	4731	43.409326526023	0.00377730443
0	4733	43.413103830453	0.025263023375
0	4741	43.438366853828	0.086259291936
0	4746	43.524626145764	0.111233498305
0	4751	43.635859644069	0.061249988461
0	4757	43.69710963253	0.007926627889
0	4762	43.705036260419	0.004242437372
0	4764	43.709278697791	0.036008057164
0	4772	43.745286754955	0.004432693345
0	4774	43.7497194483	0.013278293513
0	4782	43.762997741813	0.215772927579
0	4787	43.978770669392	0.043530677074
0	4792	44.022301346466	0.023441878893
0	4797	44.045743225359	0.099439298716
0	4802	44.145182524075	0.023152762503
0	4807	44.168335286578	0.106163388667
0	4815	44.274498675245	0.083778770875
0	4821	44.35827744612	0.013504236912
0	4826	44.371781683032	0.147108227109
0	4831	44.518889910141	0.119132144422
0	4836	44.638022054563	0.213438701188
0	4842	44.851460755751	0.044810771794
0	4847	44.896271527545	0.069994961118
0	4853	44.966266488663	0.021555936669
0	4859	44.987822425332	0.023601049651
0	4864	45.011423474983	0.061581111078
0	4870	45.073004586061	0.00435969987
0	4872	45.077364285931	0.032856867991
0	4880	45.110221153922	0.075062127854
0	4886	45.185283281776	0.023739761615
0	4891	45.209023043391	0.040868020337
0	4897	45.249891063728	0.061053296911
0	4903	45.310944360639	0.02760165663
0	4909	45.338546017269	0.014299119205
0	4914	45.352845136474	0.118411885568
0	4920	45.471257022042	0.020042727582
0	4925	45.491299749624	0.005894010295
0	4927	45.497193759919	0.028497991843
0	4935	45.525691751762	0.033925255328
0	4940	45.55961700709	0.014630186638
0	4946	45.574247193728	0.00057092946
0	4948	45.574818123188	0.025976678678
0	4956	45.600794801866	0.03161771867
0	4961	45.632412520536	0.042370080301
0	4966	45.674782600837	0.002897521569
0	4968	45.677680122406	0.067541315646
0	4976	45.745221438052	0.006324549829
0	4978	45.751545987881	0.072877672898
0	4986	45.824423660779	0.006251311622
0	4988	45.830674972401	0.086521090338
0	4996	45.917196062739	0.052378418796
0	5002	45.969574481535	0.068170247257
0	5007	46.037744728792	0.068529884881
0	5013	46.106274613673	0.057134388379
0	5018	46.163409002052	0.043777688983
0	5023	46.207186691035	0.013558062816
0	5028	46.220744753851	0.163736015439
0	5034	46.38448076929	0.025559859278
0	5039	46.410040628568	0.02348982917
0	5044	46.433530457738	0.032477083106
0	5049	46.466007540844	0.016823458089
0	5055	46.482830998933	0.004326464886
0	5057	46.487157463819	0.101475127448
0	5066	46.588632591267	0.037578037638
0	5071	46.626210628905	0.012654103252
0	5076	46.638864732157	0.028664832324
0	5082	46.667529564481	0.165143498771
0	5089	46.832673063252	0.081002009614
0	5095	46.913675072866	0.000611446979
0	5097	46.914286519845	0.190610386537
0	5108	47.104896906382	0.175126351249
0	5114	47.280023257631	0.040597103524
0	5120	47.320620361155	0.002205950146
0	5122	47.322826311301	0.019481043547
0	5130	47.342307354848	0.110886063448
0	5135	47.453193418296	0.002218538306
0	5137	47.455411956602	0.037507162306
0	5146	47.492919118908	0.129276140209
0	5153	47.622195259117	0.247841398275
0	5159	47.870036657392	0.125736790016
0	5165	47.995773447408	0.003833068746
0	5167	47.999606516154	0.014583846368
0	5175	48.014190362522	0.040355482658
0	5180	48.05454584518	0.059439617317
0	5186	48.113985462497	0.174178767353
0	5191	48.28816422985	0.003921571716
0	5193	48.292085801566	0.037022196944
0	5201	48.32910799851	0.009089010996
0	5206	48.338197009506	0.049631414552
0	5211	48.387828424058	0.012218940669
0	5216	48.400047364727	0.059495062043
0	5221	48.45954242677	0.017441996379
0	5227	48.476984423149	0.030306387744
0	5232	48.507290810893	0.274008395958
0	5239	48.781299206851	0.049383708578
0	5245	48.830682915429	0.059688758272
0	5251	48.890371673701	0.043891293334
0	5256	48.934262967035	0.024241800367
0	5261	48.958504767402	0.115711637463
0	5268	49.074216404865	0.066799212514
0	5274	49.141015617379	0.002325573023
0	5277	49.143341190402	0.123405038297
0	5285	49.266746228699	0.016492135976
0	5290	49.283238364675	0.159347547537
0	5297	49.442585912212	0.150199807136
0	5304	49.592785719348	0.002980276465
0	5306	49.595765995813	0.110483790826
0	5315	49.706249786639	0.025086835698
0	5320	49.731336622337	0.03040876326
0	5325	49.761745385597	0.005644778689
0	5327	49.767390164286	0.048396651935
0	5336	49.815786816221	0.02044806569
0	5341	49.836234881911	0.01624367102
0	5346	49.852478552931	0.009297199995
0	5351	49.861775752926	0.010420208162
0	5356	49.872195961088	0.052042886807
0	5362	49.924238847895	0.031152930213
0	5367	49.955391778108	0.024573081347
0	5373	49.979964859455	0.021797677049
0	5379	50.001762536504	0.013028951544
0	5384	50.014791488048	0.043812185538
0	5389	50.058603673586	0.015458084541
0	5394	50.074061758127	0.004046114417
0	5396	50.078107872544	0.022341322471
0	5404	50.100449195015	0.183248005981
0	5410	50.283697200996	0.01505186666
0	5416	50.298749067656	0.214193292705
0	5421	50.512942360361	0.030187344003
0	5426	50.543129704364	0.059893194866
0	5432	50.60302289923	0.001642482192
0	5434	50.604665381422	0.038403921897
0	5442	50.643069303319	0.016408782901
0	5447	50.65947808622	0.018518964856
0	5452	50.677997051076	0.026484006188
0	5458	50.704481057264	0.084045358356
0	5463	50.78852641562	0.04616348639
0	5468	50.83468990201	0.057716479859
0	5473	50.892406381869	0.015801172412
0	5478	50.908207554281	0.008873683035
0	5483	50.917081237316	0.007146492215
0	5485	50.924227729531	0.12091505598
0	5494	51.045142785511	0.003963004288
0	5496	51.049105789799	0.086449725431
0	5506	51.13555551523	0.141115695998
0	5512	51.276671211228	0.149586927102
0	5518	51.42625813833	0.026947458509
0	5523	51.453205596839	0.064680200736
0	5528	51.517885797575	0.043513627154
0	5534	51.561399424729	0.047520200515
0	5539	51.608919625244	0.125774409304
0	5546	51.734694034548	0.027085125297
0	5551	51.761779159845	0.004318674398
0	5553	51.766097834243	0.134950917203
0	5563	51.901048751446	0.104641127966
0	5568	52.005689879412	0.100519618946
0	5574	52.106209498358	0.040102127742
0	5579	52.1463116261	0.002313647015
0	5581	52.148625273115	0.009006254253
0	5586	52.157631527368	0.001336040949
0	5588	52.158967568317	0.026488116431
0	5599	52.185455684748	0.023617387615
0	5604	52.209073072363	0.075164399004
0	5609	52.284237471367	0.083182385205
0	5615	52.367419856572	0.032731920507
0	5620	52.400151777079	0.218213772927
0	5626	52.618365550006	0.21094797231
0	5634	52.829313522316	0.008150475551
0	5637	52.837463997867	0.023639492786
0	5645	52.861103490653	0.045086206396
0	5650	52.906189697049	0.069230449699
0	5656	52.975420146748	0.023973685316
0	5661	52.999393832064	0.024960455157
0	5666	53.024354287221	0.175185425578
0	5673	53.199539712799	0.088352626882
0	5679	53.287892339681	0.092295660946
0	5685	53.380188000627	0.042091811224
0	5691	53.422279811851	0.091109503041
0	5696	53.513389314892	0.003280919258
0	5698	53.51667023415	0.031620778553
0	5707	53.548291012703	0.001875845326
0	5709	53.550166858029	0.026791746771
0	5717	53.5769586048	0.00718498136
0	5720	53.58414358616	0.0159694446
0	5728	53.60011303076	0.000688314557
0	5730	53.600801345317	0.002901348348
0	5732	53.603702693665	0.003917489438
0	5734	53.607620183103	0.100021305526
0	5748	53.707641488629	0.058836432225
0	5753	53.766477920854	0.083805871894
0	5758	53.850283792748	0.038215649327
0	5763	53.888499442075	0.408622527415
0	5771	54.29712196949	0.069296869837
0	5776	54.366418839327	0.284743586196
0	5783	54.651162425523	0.12218770668
0	5788	54.773350132203	0.040532579665
0	5793	54.813882711868	0.043991857054
0	5800	54.857874568922	0.073264153541
0	5805	54.931138722463	0.064753414897
0	5811	54.99589213736	0.144808579881
0	5817	55.140700717241	0.070751401942
0	5822	55.211452119183	0.094738600496
0	5828	55.306190719679	0.02372874722
0	5833	55.329919466899	0.014207622357
0	5838	55.344127089256	0.013793263905
0	5843	55.357920353161	0.029941341506
0	5848	55.387861694667	0.011473509204
0	5853	55.399335203871	0.006914817282
0	5855	55.406250021153	0.014480358373
0	5863	55.420730379526	0.154011191655
0	5868	55.574741571181	0.016060687751
0	5873	55.590802258932	0.046592385288
0	5878	55.63739464422	0.011610958522
0	5883	55.649005602742	0.012980186284
0	5888	55.661985789026	0.105277229037
0	5895	55.767263018063	0.055691476667
0	5901	55.82295449473	0.070734512605
0	5906	55.893689007335	0.048133522636
0	5911	55.941822529971	0.002401587023
0	5913	55.944224116994	0.022171023449
0	5922	55.966395140443	0.015644694348
0	5928	55.982039834791	0.006026956153
0	5930	55.988066790944	0.001121726044
0	5932	55.989188516988	0.055672064497
0	5945	56.044860581485	0.034474213719
0	5950	56.079334795204	0.036730520864
0	5955	56.116065316068	0.032333288349
0	5960	56.148398604417	0.073990353761
0	5967	56.222388958178	0.08900285647
0	5972	56.311391814648	0.036715493413
0	5979	56.348107308061	0.018392373193
0	5984	56.366499681254	0.095588504374
0	5989	56.462088185628	0.084745904325
0	5994	56.546834089953	0.040137705692
0	5999	56.586971795645	0.172059991576
0	6007	56.759031787221	0.04115572908
0	6012	56.800187516301	0.004628150135
0	6014	56.804815666436	0.104637932507
0	6023	56.909453598943	0.07846709127
0	6028	56.987920690213	0.025832365799
0	6034	57.013753056012	0.044574528188
0	6039	57.0583275842	0.007194397765
0	6041	57.065521981965	0.032700744122
0	6050	57.098222726087	0.001460251078
0	6052	57.099682977165	0.027282567891
0	6062	57.126965545056	0.070352872105
0	6067	57.197318417161	0.076778773223
0	6072	57.274097190384	0.048419948339
0	6077	57.322517138723	0.050993940233
0	6082	57.373511078956	0.060883266416
0	6087	57.434394345372	0.081749240733
0	6093	57.516143586105	0.011974074513
0	6099	57.528117660618	0.116730141211
0	6104	57.644847801829	0.007330627363
0	6106	57.652178429192	0.048020454443
0	6114	57.700198883635	0.000732573762
0	6116	57.700931457397	0.196771549128
0	6125	57.897703006525	0.021584362817
0	6130	57.919287369342	0.046835878458
0	6136	57.9661232478	0.044569868233
0	6141	58.010693116033	0.050618654852
0	6147	58.061311770885	0.024899093593
0	6152	58.086210864478	0.040463335991
0	6157	58.126674200469	0.028765978619
0	6162	58.155440179088	0.00477062412
0	6164	58.160210803208	0.11725307697
0	6174	58.277463880178	0.064803861954
0	6179	58.342267742132	0.021405130748
0	6184	58.36367287288	0.039642443399
0	6189	58.403315316279	0.036076251178
0	6194	58.439391567457	0.029974686034
0	6199	58.469366253491	0.076543586556
0	6204	58.545909840047	0.120659789845
0	6210	58.666569629892	0.025254006902
0	6215	58.691823636794	0.017688205915
0	6220	58.709511842709	0.048654523929
0	6225	58.758166366638	0.037075110498
0	6231	58.795241477136	0.099157031818
0	6236	58.894398508954	0.059807154856
0	6241	58.95420566381	0.149309515813
0	6247	59.103515179623	0.079597530794
0	6252	59.183112710417	0.007954093806
0	6257	59.191066804223	0.030748862331
0	6262	59.221815666554	0.130583137526
0	6269	59.35239880408	0.092286949492
0	6274	59.444685753572	0.033875138692
0	6279	59.478560892264	0.073249077072
0	6284	59.551809969336	0.014936773108
0	6289	59.566746742444	0.003426576335
0	6291	59.570173318779	0.030729348832
0	6299	59.600902667611	0.002347309419
0	6301	59.60324997703	0.19568264388
0	6309	59.79893262091	0.048485324633
0	6315	59.847417945543	0.033924564837
0	6321	59.88134251038	0.021340571875
0	6327	59.902683082255	0.019930801697
0	6332	59.922613883952	0.011731133824
0	6337	59.934345017776	0.050174313426
0	6342	59.984519331202	0.04333337134
0	6347	60.027852702542	0.013731423448
0	6352	60.04158412599	0.020894337833
0	6357	60.062478463823	0.003944765259
0	6359	60.066423229082	0.038529866318
0	6367	60.1049530954	0.00689876111
0	6369	60.11185185651	0.030820341814
0	6377	60.142672198324	0.006850921247
0	6379	60.149523119571	0.043945666154
0	6388	60.193468785725	0.008237995314
0	6393	60.201706781039	0.025566328311
0	6398	60.22727310935	0.007473003285
0	6400	60.234746112635	0.05981140567
0	6408	60.294557518305	0.051204202594
0	6413	60.345761720899	0.009926649037
0	6418	60.355688369936	0.010037317634
0	6423	60.36572568757	0.059618924669
0	6428	60.425344612239	0.021206965965
0	6433	60.446551578204	0.026522616454
0	6438	60.473074194658	0.113548703326
0	6443	60.586622897984	0.103699862853
0	6449	60.690322760837	0.032119056762
0	6454	60.722441817599	0.036204660991
0	6459	60.75864647859	0.055064454073
0	6464	60.813710932663	0.180800700915
0	6474	60.994511633578	0.009456425824
0	6479	61.003968059402	0.046057048844
0	6485	61.050025108246	0.010677549307
0	6490	61.060702657553	0.012670414001
0	6495	61.073373071554	0.002086360535
0	6497	61.075459432089	0.086239812072
0	6505	61.161699244161	0.009252367105
0	6510	61.170951611266	0.021162310176
0	6515	61.192113921442	0.016327406188
0	6520	61.20844132763	0.021356343093
0	6525	61.229797670723	0.009740591256
0	6530	61.239538261979	0.001616072055
0	6532	61.241154334034	0.004644295424
0	6534	61.245798629458	0.039782844789
0	6546	61.285581474247	0.006427810448
0	6548	61.292009284695	0.03822394295
0	6556	61.330233227645	0.030881467095
0	6561	61.36111469474	0.022002166569
0	6566	61.383116861309	0.011554610264
0	6571	61.394671471573	0.11231839706
0	6580	61.506989868633	0.022649055718
0	6585	61.529638924351	0.006891223924
0	6587	61.536530148275	0.035000259293
0	6595	61.571530407568	0.020031305298
0	6600	61.591561712866	0.058622871765
0	6607	61.650184584631	0.019399639874
0	6613	61.669584224505	0.002005286566
0	6615	61.671589511071	0.004841549017
0	6617	61.676431060088	0.080324712691
0	6628	61.756755772779	0.032806578751
0	6633	61.78956235153	0.049429684581
0	6638	61.838992036111	0.058203116676
0	6643	61.897195152787	0.004264771489
0	6645	61.901459924276	0.035836863828
0	6653	61.937296788104	0.103406737132
0	6659	62.040703525236	0.008538092115
0	6661	62.049241617351	0.126834679956
0	6669	62.176076297307	0.023683394184
0	6674	62.199759691491	0.003151141724
0	6676	62.202910833215	0.000129919948
0	6678	62.203040753163	0.016208842112
0	6686	62.219249595275	0.101361851785
0	6696	62.32061144706	0.082046758999
0	6702	62.402658206059	0.00441517441
0	6704	62.407073380469	0.068967861867
0	6712	62.476041242336	0.045475449168
0	6717	62.521516691504	0.010198981552
0	6722	62.531715673056	0.214361279153
0	6729	62.746076952209	0.011744951512
0	6734	62.757821903721	0.038457224133
0	6739	62.796279127854	0.023139255509
0	6744	62.819418383363	0.128878578731
0	6751	62.948296962094	0.033133128537
0	6756	62.981430090631	0.013467001482
0	6761	62.994897092113	0.048150091724
0	6768	63.043047183837	0.071346529577
0	6773	63.114393713414	0.023015628242
0	6778	63.137409341656	0.037885965492
0	6783	63.175295307148	0.03104455546
0	6788	63.206339862608	0.063740521684
0	6794	63.270080384292	0.068811447481
0	6800	63.338891831773	0.003218466402
0	6802	63.342110298175	0.001868647716
0	6804	63.343978945891	0.007993128689
0	6809	63.35197207458	0.014546831386
0	6817	63.366518905966	0.007142558786
0	6822	63.373661464752	0.062474593098
0	6830	63.43613605785	0.058104048986
0	6835	63.494240106836	0.11278833627
0	6840	63.607028443106	0.093036405104
0	6846	63.70006484821	0.035838955348
0	6851	63.735903803558	0.069238022982
0	6858	63.80514182654	0.037976475442
0	6864	63.843118301982	0.001547304352
0	6866	63.844665606334	0.005668066722
0	6868	63.850333673056	0.100951193115
0	6880	63.951284866171	0.029657162592
0	6885	63.980942028763	0.02185914206
0	6890	64.002801170823	0.038030339686
0	6896	64.040831510509	0.025305490941
0	6901	64.06613700145	0.013884640327
0	6906	64.080021641777	0.005539269728
0	6908	64.085560911505	0.0156837306
0	6916	64.101244642105	0.066857157565
0	6921	64.16810179967	0.023683249206
0	6926	64.191785048876	0.010062002491
0	6931	64.201847051367	0.00101376793
0	6933	64.202860819297	0.041501648618
0	6941	64.244362467915	0.019436238013
0	6946	64.263798705928	0.091851438176
0	6951	64.355650144104	0.011877846828
0	6956	64.367527990932	0.004671835007
0	6958	64.372199825939	0.019837461648
0	6966	64.392037287587	0.038321989478
0	6971	64.430359277065	0.006378155211
0	6973	64.436737432276	0.013277533466
0	6981	64.450014965742	0.110603995532
0	6986	64.560618961274	0.020997997326
0	6991	64.5816169586	0.045019940804
0	6996	64.626636899404	0.032119846166
0	7001	64.65875674557	0.056831647591
0	7006	64.715588393161	0.021933333995
0	7011	64.737521727156	0.077835450583
0	7017	64.815357177739	0.052323222453
0	7022	64.867680400192	0.034501821015
0	7027	64.902182221207	0.032656157302
0	7032	64.934838378509	0.004546604666
0	7034	64.939384983175	0.043877482818
0	7042	64.983262465993	0.038512917924
0	7047	65.021775383917	0.066746323899
0	7053	65.088521707816	0.044196152419
0	7058	65.132717860235	0.040793122647
0	7064	65.173510982882	0.068410831902
0	7070	65.241921814784	0.044159172941
0	7076	65.286080987725	0.028251732427
0	7082	65.314332720152	0.04155826479
0	7088	65.355890984942	0.006824233415
0	7090	65.362715218357	0.023802906112
0	7098	65.386518124469	0.016688108968
0	7103	65.403206233437	0.020582723545
0	7108	65.423788956982	0.022555740839
0	7113	65.446344697821	0.114953263122
0	7118	65.561297960943	0.051911230764
0	7124	65.613209191707	0.046767972648
0	7129	65.659977164355	0.042289085875
0	7134	65.70226625023	0.014009057665
0	7140	65.716275307895	0.02201033811
0	7145	65.738285646005	0.034482435024
0	7150	65.772768081029	0.215309789842
0	7156	65.988077870871	0.020049890911
0	7162	66.008127761782	0.046541649659
0	7168	66.054669411441	0.135672106257
0	7173	66.190341517698	0.013539726434
0	7178	66.203881244132	0.000378144688
0	7180	66.20425938882	0.00536715041
0	7182	66.20962653923	0.01276608814
0	7190	66.22239262737	0.008294414538
0	7195	66.230687041908	0.022734617886
0	7203	66.253421659794	0.014115342568
0	7208	66.267537002362	0.033452962231
0	7213	66.300989964593	0.008758243412
0	7218	66.309748208005	0.095129252291
0	7223	66.404877460296	0.010324587376
0	7229	66.415202047672	0.004599604143
0	7231	66.419801651815	0.016780292463
0	7239	66.436581944278	0.081960046518
0	7244	66.518541990796	0.009520122081
0	7249	66.528062112877	0.002863105621
0	7251	66.530925218498	0.113537571909
0	7260	66.644462790407	0.092357489849
0	7265	66.736820280256	0.004181785887
0	7267	66.741002066143	0.0026508165
0	7269	66.743652882643	0.037170617932
0	7280	66.780823500575	0.000920546561
0	7282	66.781744047136	0.026415277522
0	7290	66.808159324658	0.059694763679
0	7296	66.867854088337	0.2019320892
0	7302	67.069786177537	0.294908534276
0	7308	67.364694711813	0.005941367302
0	7310	67.370636079115	0.113462477975
0	7320	67.48409855709	0.02536289935
0	7325	67.50946145644	0.042900904278
0	7330	67.552362360718	0.174452982308
0	7339	67.726815343026	0.124684621982
0	7347	67.851499965008	0.100312203343
0	7353	67.951812168351	0.000265704921
0	7355	67.952077873272	0.084933150034
0	7363	68.037011023306	0.184578485306
0	7371	68.221589508612	0.014913754181
0	7376	68.236503262793	0.033740691875
0	7382	68.270243954668	0.009369976637
0	7387	68.279613931305	0.064168136345
0	7394	68.34378206765	0.055227979644
0	7399	68.399010047294	0.085979793924
0	7405	68.484989841218	0.132519254914
0	7411	68.617509096132	0.063373551901
0	7416	68.680882648033	0.040682521013
0	7423	68.721565169046	0.0382898433
0	7428	68.759855012346	0.042386377849
0	7434	68.802241390195	0.032372326139
0	7439	68.834613716334	0.016423751398
0	7445	68.851037467732	0.091188072411
0	7452	68.942225540143	0.073373688145
0	7458	69.015599228288	0.011475536422
0	7463	69.02707476471	0.010353898735
0	7468	69.037428663445	0.172091703907
0	7473	69.209520367352	0.019554390626
0	7478	69.229074757978	0.062058208137
0	7484	69.291132966115	0.027707227739
0	7489	69.318840193854	0.011126370057
0	7494	69.329966563911	0.035424247575
0	7499	69.365390811486	0.066637146313
0	7504	69.432027957799	0.013880629164
0	7509	69.445908586963	0.037734113481
0	7514	69.483642700444	0.006099163494
0	7516	69.489741863938	0.061418413615
0	7526	69.551160277553	0.047159982884
0	7533	69.598320260437	0.073003396882
0	7539	69.671323657319	0.017028168883
0	7544	69.688351826202	0.004566863816
0	7546	69.692918690018	0.043522653076
0	7555	69.736441343094	0.035271511663
0	7561	69.771712854757	0.008383237366
0	7566	69.780096092123	0.13442292808
0	7573	69.914519020203	0.032806068739
0	7579	69.947325088942	0.019330366277
0	7584	69.966655455219	0.038027362182
0	7589	70.004682817401	0.045055711199
0	7594	70.0497385286	0.002660732428
0	7596	70.052399261028	0.023040737246
0	7604	70.075439998274	0.020519180112
0	7610	70.095959178386	0.030281361165
0	7615	70.126240539551	0.007217466227
0	7620	70.133458005778	0.039770416145
0	7625	70.173228421923	0.003273612994
0	7627	70.176502034917	0.039805747457
0	7635	70.216307782374	0.230060070839
0	7641	70.446367853213	0.011265448467
0	7646	70.45763330168	0.019456500956
0	7651	70.477089802636	0.057691169246
0	7657	70.534780971882	0.083003530578
0	7662	70.61778450246	0.004598534363
0	7664	70.622383036823	0.014694441645
0	7672	70.637077478468	0.007472864115
0	7677	70.644550342583	0.057207067694
0	7682	70.701757410277	0.000135728837
0	7684	70.701893139114	0.071403311737
0	7692	70.773296450851	0.006204296323
0	7695	70.779500747174	0.04527232956
0	7703	70.824773076734	0.032043507586
0	7708	70.85681658432	0.031892832282
0	7713	70.888709416602	0.046583148982
0	7718	70.935292565584	0.026537890608
0	7723	70.961830456192	0.079064259241
0	7729	71.040894715433	0.021452165543
0	7734	71.062346880976	0.005641598444
0	7736	71.06798847942	0.132627800557
0	7745	71.200616279977	0.095099074061
0	7750	71.295715354038	0.08878035391
0	7756	71.384495707948	0.068516036016
0	7761	71.453011743964	0.167658818781
0	7767	71.620670562745	0.026256226376
0	7772	71.646926789121	0.006636426868
0	7775	71.653563215989	0.135106935158
0	7783	71.788670151147	0.065627567796
0	7788	71.854297718943	0.235136239
0	7797	72.089433957943	0.139306363535
0	7802	72.228740321478	0.011470771986
0	7808	72.240211093464	0.009997790469
0	7813	72.250208883933	0.023839617825
0	7818	72.274048501758	0.003440515529
0	7820	72.277489017287	0.130489095995
0	7828	72.407978113282	0.067569656936
0	7833	72.475547770218	0.06393419858
0	7838	72.539481968798	0.042721357742
0	7844	72.58220332654	0.002464483254
0	7846	72.584667809794	0.092203857507
0	7854	72.676871667301	0.076051778488
0	7859	72.752923445789	0.007527912057
0	7864	72.760451357846	0.087995858055
0	7870	72.848447215901	0.079302504641
0	7875	72.927749720542	0.069415203801
0	7880	72.997164924343	0.01125898847
0	7885	73.008423912813	0.080356313314
0	7891	73.088780226127	0.008935759984
0	7896	73.097715986111	0.08718638704
0	7901	73.184902373151	0.008972233024
0	7906	73.193874606175	0.010314627862
0	7911	73.204189234037	0.084255163906
0	7916	73.288444397943	0.013439204823
0	7921	73.301883602766	0.05471068215
0	7928	73.356594284916	0.050223124936
0	7934	73.406817409852	0.037018797718
0	7940	73.44383620757	0.119225635009
0	7945	73.563061842579	0.022223069955
0	7950	73.585284912534	0.019004240115
0	7955	73.604289152649	0.104860132718
0	7960	73.709149285367	0.044373828176
0	7965	73.753523113543	0.024915637526
0	7970	73.778438751069	0.057439845886
0	7975	73.835878596955	0.084804132669
0	7981	73.920682729624	0.030069310009
0	7986	73.950752039633	0.028913743706
0	7991	73.979665783339	0.062550155292
0	7996	74.042215938631	0.023655977996
0	8001	74.065871916627	0.114963255045
0	8007	74.180835171672	0.031058052952
0	8012	74.211893224624	0.048921812387
0	8017	74.260815037011	0.017932263567
0	8022	74.278747300578	0.038802646913
0	8027	74.317549947491	0.068838866014
0	8033	74.386388813505	0.028878967934
0	8038	74.415267781439	0.03493014068
0	8044	74.450197922119	0.043076666686
0	8049	74.493274588805	0.013212126741
0	8054	74.506486715546	0.021953352816
0	8060	74.528440068362	0.114916991025
0	8065	74.643357059387	0.02483644839
0	8070	74.668193507777	0.024216587212
0	8075	74.692410094989	0.037949124535
0	8080	74.730359219524	0.039214119386
0	8086	74.76957333891	0.003447095976
0	8088	74.773020434886	0.118474780395
0	8096	74.891495215281	0.013004991725
0	8101	74.904500207006	0.048939965212
0	8106	74.953440172218	0.039137110376
0	8111	74.992577282594	0.006215730848
0	8113	74.998793013442	0.028240173047
0	8122	75.027033186489	0.140530833103
0	8129	75.167564019592	0.020234454092
0	8134	75.187798473684	0.049403845903
0	8139	75.237202319587	0.065568461869
0	8144	75.302770781456	0.020391315512
0	8149	75.323162096968	0.059162387721
0	8154	75.382324484689	0.007498841378
0	8159	75.389823326067	0.009119923498
0	8164	75.398943249565	0.079000068986
0	8170	75.477943318551	0.1054452124
0	8176	75.583388530951	0.04838877575
0	8181	75.631777306701	0.034201802902
0	8186	75.665979109603	0.038120692785
0	8193	75.704099802388	0.067635419133
0	8199	75.771735221521	0.112165165173
0	8206	75.883900386694	0.042566230277
0	8211	75.926466616971	0.077699499092
0	8217	76.004166116063	0.303582158317
0	8223	76.30774827438	0.008224565745
0	8228	76.315972840125	0.069797667628
0	8234	76.385770507753	0.018678127187
0	8239	76.40444863494	0.061375800147
0	8244	76.465824435087	0.014283480603
0	8249	76.48010791569	0.075382876291
0	8255	76.555490791981	0.068118403885
0	8261	76.623609195866	0.00772333563
0	8266	76.631332531496	0.001705377263
0	8268	76.633037908759	0.011442024255
0	8273	76.644479933014	0.042185677769
0	8282	76.686665610783	0.062599376897
0	8288	76.74926498768	0.071870685459
0	8293	76.821135673139	0.03405910063
0	8298	76.855194773769	0.104683367394
0	8304	76.959878141163	0.070250478441
0	8310	77.030128619604	0.020933729619
0	8315	77.051062349223	0.005430290436
0	8317	77.056492639659	0.086090397385
0	8325	77.142583037044	0.038445433246
0	8330	77.18102847029	0.005862194489
0	8332	77.186890664779	0.023806844968
0	8340	77.210697509747	0.093687196979
0	8345	77.304384706726	0.030532318314
0	8351	77.33491702504	0.006818981575
0	8353	77.341736006615	0.046311734671
0	8361	77.388047741286	0.025315731694
0	8366	77.41336347298	0.034886718762
0	8371	77.448250191742	0.079800268782
0	8377	77.528050460524	0.038811293685
0	8383	77.566861754209	0.008121089338
0	8390	77.574982843547	0.033311387756
0	8396	77.608294231303	0.013019651136
0	8401	77.621313882439	0.026293170702
0	8406	77.647607053141	0.064052154308
0	8411	77.711659207449	0.073894607186
0	8416	77.785553814635	0.063654808625
0	8422	77.84920862326	0.000613907122
0	8424	77.849822530382	0.051242210789
0	8432	77.901064741171	0.045620252076
0	8437	77.946684993247	0.059200085451
0	8443	78.005885078698	0.041678926905
0	8449	78.047564005603	0.039123454553
0	8454	78.086687460156	0.062970589922
0	8459	78.149658050078	0.01450418482
0	8465	78.164162234898	0.045693354595
0	8470	78.209855589493	0.02120915929
0	8475	78.231064748783	0.087665076638
0	8481	78.318729825421	0.010020063432
0	8486	78.328749888853	0.159800456776
0	8495	78.488550345629	0.119543806717
0	8503	78.608094152346	0.020967370226
0	8508	78.629061522572	0.043780452668
0	8513	78.67284197524	0.012896519211
0	8518	78.685738494451	0.025612282847
0	8524	78.711350777298	0.027547398719
0	8529	78.738898176017	0.03099537542
0	8535	78.769893551437	0.016978925873
0	8541	78.78687247731	0.147141185375
0	8546	78.934013662685	0.047719138475
0	8551	78.98173280116	0.008323477256
0	8553	78.990056278416	0.121437135682
0	8563	79.111493414098	0.044122230668
0	8569	79.155615644766	0.007489786686
0	8571	79.163105431452	0.035249722647
0	8580	79.198355154099	0.005312189861
0	8582	79.20366734396	0.047267216374
0	8590	79.250934560334	0.014786756017
0	8595	79.265721316351	0.000913808911
0	8597	79.266635125262	0.064748803496
0	8605	79.331383928758	0.102834676858
0	8610	79.434218605616	0.044942547224
0	8615	79.47916115284	0.13449942816
0	8620	79.613660581	0.005391102837
0	8622	79.619051683837	0.04163577249
0	8630	79.660687456327	0.125511543236
0	8635	79.786198999563	0.059643536171
0	8640	79.845842535734	0.078052541756
0	8646	79.92389507749	0.127873471236
0	8653	80.051768548726	0.001164587985
0	8656	80.052933136711	0.061419872119
0	8665	80.11435300883	0.052686805398
0	8670	80.167039814228	0.008275525241
0	8672	80.175315339469	0.07375555043
0	8681	80.249070889899	0.042935107905
0	8686	80.292005997804	0.023455031628
0	8691	80.315461029432	0.046661043526
0	8697	80.362122072958	0.00357058641
0	8699	80.365692659368	0.027593725571
0	8707	80.393286384939	0.004023697676
0	8710	80.397310082615	0.066674516284
0	8718	80.463984598899	0.005504526568
0	8720	80.469489125467	0.136183840759
0	8728	80.605672966226	0.091766645697
0	8734	80.697439611923	0.129893809379
0	8742	80.827333421302	0.120779961835
0	8748	80.948113383137	0.029968215198
0	8753	80.978081598335	0.006551627638
0	8755	80.984633225973	0.006008935299
0	8760	80.990642161272	0.013453224881
0	8768	81.004095386153	0.209458710748
0	8774	81.213554096901	0.009047355685
0	8779	81.222601452586	0.091285906049
0	8784	81.313887358635	0.010309459563
0	8789	81.324196818198	0.006657297909
0	8792	81.330854116107	0.090851029253
0	8800	81.42170514536	0.126815399015
0	8809	81.548520544375	0.020184315019
0	8814	81.568704859394	0.101971198354
0	8819	81.670676057748	0.018657950642
0	8824	81.68933400839	0.036577569655
0	8829	81.725911578045	0.012899408023
0	8834	81.738810986068	0.044735688987
0	8839	81.783546675055	0.046811203631
0	8844	81.830357878686	0.025458242323
0	8849	81.855816121009	0.023845829539
0	8854	81.879661950548	0.002815907267
0	8856	81.882477857815	0.068177676064
0	8864	81.950655533879	0.02041324434
0	8870	81.971068778219	0.011507137211
0	8875	81.98257591543	0.081190395187
0	8880	82.063766310617	0.077508921516
0	8887	82.141275232133	0.000232139211
0	8889	82.141507371344	0.046281906029
0	8897	82.187789277373	0.020285694905
0	8902	82.208074972278	0.006067003207
0	8904	82.214141975485	0.025388905066
0	8912	82.239530880551	0.026764846312
0	8918	82.266295726863	0.038544151115
0	8923	82.304839877978	0.099578178194
0	8928	82.404418056172	0.12619627097
0	8935	82.530614327142	0.128171675096
0	8940	82.658786002238	0.021258855297
0	8945	82.680044857535	0.031339901336
0	8950	82.711384758871	0.021305324327
0	8955	82.732690083198	0.032776866924
0	8960	82.765466950122	0.066875446324
0	8965	82.832342396446	0.125329846184
0	8971	82.95767224263	0.030093888615
0	8976	82.987766131245	0.044223645235
0	8981	83.03198977648	0.012719123819
0	8986	83.044708900299	0.001669911828
0	8988	83.046378812127	0.030114117142
0	8996	83.076492929269	0.121948580958
0	9003	83.198441510227	0.007590996233
0	9005	83.20603250646	0.014266006291
0	9013	83.220298512751	0.009702725224
0	9018	83.230001237975	0.043093910139
0	9024	83.273095148114	0.034494402156
0	9029	83.30758955027	0.009046924807
0	9034	83.316636475077	0.027143810891
0	9039	83.343780285968	0.001723317872
0	9041	83.34550360384	0.123164638544
0	9051	83.468668242384	0.018660049526
0	9057	83.48732829191	0.022501728988
0	9062	83.509830020898	0.075819175053
0	9067	83.585649195951	0.043445119775
0	9072	83.629094315726	0.016257925857
0	9078	83.645352241583	0.050019539068
0	9083	83.695371780651	0.012429300392
0	9088	83.707801081043	0.000659047479
0	9090	83.708460128522	0.01195607504
0	9095	83.720416203562	0.054463409973
0	9103	83.774879613535	0.036198228259
0	9108	83.811077841794	0.009802931653
0	9113	83.820880773447	0.185538489944
0	9123	84.006419263391	0.162299914903
0	9129	84.168719178294	0.030715782344
0	9134	84.199434960638	0.00804734519
0	9139	84.207482305828	0.040743753497
0	9144	84.248226059325	0.026775055597
0	9149	84.275001114922	0.098531876057
0	9154	84.373532990979	0.004460672008
0	9156	84.377993662987	0.038293390844
0	9164	84.416287053831	0.288404163056
0	9170	84.704691216887	0.010195416338
0	9175	84.714886633225	0.034877343433
0	9180	84.749763976658	0.017804891863
0	9186	84.767568868521	0.045240965919
0	9192	84.81280983444	0.018548614205
0	9197	84.831358448645	0.003471602533
0	9199	84.834830051178	0.025318288902
0	9207	84.86014834008	0.069306813149
0	9212	84.929455153229	0.027825061607
0	9217	84.957280214836	0.011780141919
0	9222	84.969060356755	0.080417430482
0	9229	85.049477787237	0.114165743619
0	9235	85.163643530856	0.021492014508
0	9240	85.185135545364	0.011479441643
0	9245	85.196614987007	0.031577383119
0	9250	85.228192370126	0.010578521606
0	9255	85.238770891732	0.049038261487
0	9260	85.287809153219	0.001861717092
0	9262	85.289670870311	0.023718734457
0	9270	85.313389604768	0.031939289714
0	9275	85.345328894482	0.090566938722
0	9281	85.435895833204	0.041602204868
0	9286	85.477498038072	0.044270330696
0	9292	85.521768368768	0.003398347104
0	9294	85.525166715872	0.017410166016
0	9302	85.542576881888	0.074700129169
0	9308	85.617277011057	0.062598524235
0	9313	85.679875535292	0.030191732453
0	9318	85.710067267745	0.037501511872
0	9323	85.747568779617	0.037157882335
0	9329	85.784726661952	0.038227421729
0	9334	85.822954083681	0.029059073831
0	9340	85.852013157512	0.03280104345
0	9345	85.884814200962	0.025604910085
0	9350	85.910419111047	0.034359443471
0	9355	85.944778554518	0.041008172342
0	9360	85.98578672686	0.072484350892
0	9366	86.058271077752	0.008435150706
0	9371	86.066706228458	0.005433938453
0	9373	86.072140166911	0.010040254158
0	9379	86.082180421069	0.02035052557
0	9387	86.102530946639	0.09894746857
0	9393	86.201478415209	0.003925293229
0	9395	86.205403708438	0.146045581552
0	9404	86.35144928999	0.069968213764
0	9409	86.421417503754	0.023365109788
0	9415	86.444782613542	0.015893447624
0	9420	86.460676061166	0.01578656797
0	9425	86.476462629136	0.113860688813
0	9430	86.590323317949	0.051641163129
0	9437	86.641964481078	0.037388454521
0	9442	86.679352935599	0.026274478407
0	9447	86.705627414006	0.080659690675
0	9452	86.786287104681	0.001285707325
0	9454	86.787572812006	0.192998668847
0	9463	86.980571480853	0.008489180167
0	9468	86.98906066102	0.091563135853
0	9475	87.080623796873	0.062934162552
0	9481	87.143557959425	0.100867960412
0	9487	87.244425919837	0.053782489626
0	9492	87.298208409463	0.02621112283
0	9497	87.324419532293	0.001373492683
0	9499	87.325793024976	0.040117151998
0	9508	87.365910176974	0.012549648901
0	9513	87.378459825875	0.014644015515
0	9519	87.39310384139	0.013138079201
0	9524	87.406241920591	0.010914834555
0	9529	87.417156755146	0.05572073649
0	9534	87.472877491636	0.035211203768
0	9540	87.508088695404	0.000995369171
0	9542	87.509084064575	0.045199457942
0	9551	87.554283522517	0.005496803062
0	9553	87.559780325579	0.020720593983
0	9561	87.580500919562	0.080450921119
0	9567	87.660951840681	0.042133838066
0	9572	87.703085678747	0.009833885098
0	9577	87.712919563845	0.109222542325
0	9583	87.82214210617	0.052884953849
0	9588	87.875027060019	0.040677861987
0	9593	87.915704922006	0.013602430972
0	9598	87.929307352978	0.063793690947
0	9603	87.993101043925	0.005237001354
0	9605	87.998338045279	0.08181861183
0	9613	88.080156657109	0.013930975811
0	9619	88.09408763292	0.224275143798
0	9626	88.318362776718	0.064054740391
0	9632	88.382417517109	0.046215817939
0	9637	88.428633335048	0.096791816645
0	9642	88.525425151693	0.082214447237
0	9647	88.60763959893	0.088662548572
0	9652	88.696302147502	0.16437020685
0	9660	88.860672354352	0.025307123948
0	9665	88.8859794783	0.144487350176
0	9672	89.030466828476	0.055143838902
0	9677	89.085610667378	0.007604082462
0	9679	89.09321474984	0.011469670619
0	9687	89.104684420459	0.026076831544
0	9692	89.130761252003	0.017346679754
0	9697	89.148107931757	0.019577374912
0	9702	89.167685306669	0.113329932804
0	9708	89.281015239473	0.00454686378
0	9710	89.285562103253	0.000654359252
0	9712	89.286216462505	0.050152485632
0	9723	89.336368948137	0.004469356758
0	9725	89.340838304895	0.066572246079
0	9734	89.407410550974	0.011652513936
0	9739	89.41906306491	0.094235893806
0	9745	89.513298958716	0.001344526929
0	9747	89.514643485645	0.006549695983
0	9749	89.521193181628	0.010010150164
0	9757	89.531203331792	0.104553069862
0	9765	89.635756401654	0.043738435947
0	9770	89.679494837601	0.051490551156
0	9775	89.730985388757	0.027359316008
0	9780	89.758344704765	0.060860692812
0	9785	89.819205397577	0.111593147989
0	9793	89.930798545566	0.120745153034
0	9798	90.0515436986	0.085034794769
0	9803	90.136578493369	0.049009642035
0	9808	90.185588135404	0.020913640404
0	9813	90.206501775808	0.020463556407
0	9818	90.226965332215	0.015016312334
0	9823	90.241981644549	0.08717914197
0	9828	90.329160786519	0.023876990206
0	9834	90.353037776725	0.022553928817
0	9839	90.375591705542	0.044615888101
0	9845	90.420207593643	0.001741380773
0	9847	90.421948974416	0.015603085243
0	9855	90.437552059659	0.088790715485
0	9861	90.526342775144	0.048928112059
0	9866	90.575270887203	0.021170671706
0	9871	90.596441558909	0.026331801574
0	9876	90.622773360483	0.074324418157
0	9881	90.69709777864	0.040153368778
0	9887	90.737251147418	0.022530281114
0	9892	90.759781428532	0.028646269206
0	9897	90.788427697738	0.098688541784
0	9903	90.887116239522	0.017439998829
0	9908	90.904556238351	0.012391700785
0	9913	90.916947939136	0.148263358306
0	9918	91.065211297442	0.183546604456
0	9924	91.248757901898	0.072112724992
0	9930	91.32087062689	0.075651593099
0	9935	91.396522219989	0.007547725168
0	9940	91.404069945157	0.006065345038
0	9942	91.410135290195	0.10142524558
0	9950	91.511560535775	0.041709809197
0	9955	91.553270344972	0.033416016289
0	9960	91.586686361261	0.211224866176
0	9971	91.797911227437	0.112476974286
0	9976	91.910388201723	0.031844529115
0	9981	91.942232730838	0.080435724161
0	9986	92.022668454999	0.010051196623
0	9992	92.032719651622	0.027687830973
0	9997	92.060407482595	0.03315790616
0	10002	92.093565388755	0.001136279493
0	10004	92.094701668248	0.035918906806
0	10013	92.130620575054	0.015645027218
0	10018	92.146265602272	0.067679151338
0	10023	92.21394475361	0.039004387394
0	10028	92.252949141004	0.060006650734
0	10033	92.312955791738	0.050184866569
0	10039	92.363140658307	0.02575423799
0	10044	92.388894896297	0.014912733981
0	10049	92.403807630278	0.012296504458
0	10054	92.416104134736	0.007503720946
0	10059	92.423607855682	0.051789504133
0	10065	92.475397359815	0.090069354112
0	10070	92.565466713927	0.027383465502
0	10075	92.592850179429	0.208031207239
0	10080	92.800881386668	0.007094091637
0	10082	92.807975478305	0.037294727255
0	10090	92.84527020556	0.115416229862
0	10095	92.960686435422	0.009417743041
0	10100	92.970104178463	0.058756611997
0	10107	93.02886079046	0.015893823589
0	10112	93.044754614049	0.057471683233
0	10117	93.102226297282	0.000928094177
0	10119	93.103154391459	0.086462864513
0	10127	93.189617255972	0.122844426392
0	10133	93.312461682364	0.037715151203
0	10140	93.350176833567	0.006264052112
0	10142	93.356440885679	0.084384684644
0	10150	93.440825570323	0.042962033088
0	10156	93.483787603411	0.034466797958
0	10161	93.518254401369	0.016014066476
0	10166	93.534268467845	0.003476904363
0	10168	93.537745372208	0.04039177585
0	10176	93.578137148058	0.025980545423
0	10181	93.604117693481	0.052694431969
0	10186	93.65681212545	0.034404488439
0	10192	93.691216613889	0.088521959755
0	10197	93.779738573644	0.063684472358
0	10203	93.843423046002	0.011560126648
0	10208	93.85498317265	0.005634853384
0	10210	93.860618026034	0.000552836535
0	10212	93.861170862569	0.007542222552
0	10217	93.868713085121	0.00736040369
0	10222	93.876073488811	0.015304781782
0	10230	93.891378270593	0.115138578244
0	10239	94.006516848837	0.015496274584
0	10244	94.022013123421	0.103530065901
0	10250	94.125543189322	0.065872863366
0	10256	94.191416052688	0.04549221548
0	10261	94.236908268168	0.014432837786
0	10266	94.251341105954	0.045879185655
0	10272	94.297220291609	0.050133033168
0	10279	94.347353324777	0.054686711755
0	10285	94.402040036532	0.034087998432
0	10290	94.436128034964	0.009641101258
0	10295	94.445769136222	0.042583045135
0	10301	94.488352181357	0.122910476023
0	10308	94.61126265738	0.091040971605
0	10314	94.702303628985	0.027130481959
0	10319	94.729434110944	0.025907746158
0	10325	94.755341857102	0.02415554001
0	10330	94.779497397112	0.073682318159
0	10336	94.853179715271	0.036585846909
0	10342	94.88976556218	0.027412190183
0	10347	94.917177752363	0.002405233455
0	10349	94.919582985818	0.021837834299
0	10357	94.941420820117	0.009093085201
0	10362	94.950513905318	0.159256552791
0	10368	95.109770458109	0.066976954703
0	10374	95.176747412812	0.010189779313
0	10379	95.186937192125	0.004321413975
0	10381	95.1912586061	0.004734051729
0	10386	95.195992657829	0.046210110314
0	10395	95.242202768143	0.073698591355
0	10400	95.315901359498	0.014075002032
0	10405	95.32997636153	0.003534521414
0	10407	95.333510882944	0.024657112717
0	10415	95.358167995661	0.090724490113
0	10422	95.448892485774	0.017032609483
0	10427	95.465925095257	0.028740960984
0	10432	95.494666056241	0.021977423917
0	10437	95.516643480158	0.123558278201
0	10442	95.640201758359	0.063478199038
0	10447	95.703679957397	0.063922761681
0	10452	95.767602719078	0.017628576756
0	10457	95.785231295834	0.047132333981
0	10462	95.832363629815	0.041782175773
0	10467	95.874145805588	0.149098173406
0	10474	96.023243978994	0.032317989075
0	10479	96.055561968069	0.025262839032
0	10484	96.080824807101	0.054483295582
0	10489	96.135308102683	0.154050278002
0	10495	96.289358380685	0.13809608545
0	10501	96.427454466135	0.007251362409
0	10503	96.434705828544	0.065945263063
0	10511	96.500651091607	0.033058685739
0	10516	96.533709777346	0.012099780534
0	10521	96.54580955788	0.015729457336
0	10526	96.561539015216	0.00158398377
0	10528	96.563122998986	0.038809353287
0	10537	96.601932352273	0.015208465318
0	10542	96.617140817591	0.008837686954
0	10547	96.625978504545	0.045203031877
0	10553	96.671181536422	0.092109392998
0	10558	96.76329092942	0.002639763695
0	10560	96.765930693115	0.093672728103
0	10569	96.859603421218	0.034295297765
0	10575	96.893898718983	0.1553179028
0	10581	97.049216621783	0.045421442203
0	10587	97.094638063986	0.008401536387
0	10592	97.103039600373	0.020341593566
0	10597	97.123381193939	0.04881962842
0	10602	97.172200822359	0.073682498457
0	10607	97.245883320816	0.03214526621
0	10612	97.278028587026	0.005635945855
0	10614	97.283664532881	0.021108981028
0	10622	97.304773513909	0.003905525249
0	10624	97.308679039158	0.021657760028
0	10632	97.330336799186	0.06513237063
0	10637	97.395469169816	0.026618940608
0	10642	97.422088110424	0.034208511366
0	10649	97.45629662179	0.061026379263
0	10654	97.517323001053	0.058302132445
0	10659	97.575625133498	0.045600751369
0	10665	97.621225884867	0.028531199839
0	10671	97.649757084706	0.030779826452
0	10676	97.680536911158	0.014144812743
0	10681	97.694681723901	0.003948556857
0	10683	97.698630280758	0.085491184897
0	10691	97.784121465655	0.004047778907
0	10693	97.788169244562	0.080326078426
0	10701	97.868495322988	0.000117106433
0	10703	97.868612429421	0.059322440224
0	10712	97.927934869645	0.171633458748
0	10718	98.099568328393	0.015882681211
0	10723	98.115451009604	0.000263383257
0	10725	98.115714392861	0.044608043921
0	10734	98.160322436782	0.005440196642
0	10736	98.165762633424	0.022390498924
0	10745	98.188153132348	0.018887382315
0	10750	98.207040514663	0.00480253654
0	10752	98.211843051203	0.08236484293
0	10760	98.294207894133	0.124634991503
0	10767	98.418842885636	0.163638610046
0	10772	98.582481495682	0.007356522478
0	10774	98.58983801816	0.078035615002
0	10782	98.667873633162	0.150024529592
0	10787	98.817898162754	0.058649591261
0	10792	98.876547754015	0.029530050751
0	10797	98.906077804766	0.036834129085
0	10804	98.942911933851	0.010236514256
0	10809	98.953148448107	0.004534828516
0	10811	98.957683276623	0.039033492265
0	10821	98.996716768888	0.158708018975
0	10828	99.155424787863	0.103157089598
0	10834	99.258581877461	0.071022020447
0	10839	99.329603897908	0.065880388372
0	10844	99.39548428628	0.050936856317
0	10849	99.446421142597	0.082139691046
0	10855	99.528560833643	0.071155354416
0	10862	99.599716188059	0.053761885719
0	10867	99.653478073778	0.064386442473
0	10873	99.717864516251	0.05892769183
0	10879	99.776792208081	0.050699530067
0	10885	99.827491738148	0.094588597366
0	10890	99.922080335514	0.197064352426
0	10895	100.11914468794	0.014361975701
0	10900	100.133506663641	0.116840100037
0	10905	100.250346763678	0.033610883384
0	10910	100.283957647062	0.052016921862
0	10915	100.335974568924	0.012500656333
0	10920	100.348475225257	0.059073920571
0	10925	100.407549145828	0.219777942912
0	10933	100.62732708874	0.002648724893
0	10935	100.629975813633	0.144173187402
0	10943	100.774149001035	0.055420628256
0	10950	100.829569629291	0.002011255213
0	10952	100.831580884504	0.002258521748
0	10954	100.833839406252	0.061136577771
0	10966	100.894975984023	0.04436861566
0	10972	100.939344599683	0.129679173828
0	10978	101.069023773511	0.36719701847
0	10984	101.436220791981	0.009957641329
0	10989	101.44617843331	0.04057475938
0	10994	101.48675319269	0.041960146013
0	10999	101.528713338703	0.032047675616
0	11004	101.560761014319	0.123543265271
0	11010	101.68430427959	0.018760486964
0	11015	101.703064766554	0.001726776287
0	11017	101.704791542841	0.006421369262
0	11022	101.711212912103	0.059770522714
0	11030	101.770983434817	0.06565659491
0	11035	101.836640029727	0.017644748268
0	11040	101.854284777995	0.010696743155
0	11045	101.86498152115	0.129112435309
0	11050	101.994093956459	0.006124317325
0	11052	102.000218273784	0.17712349754
0	11062	102.177341771324	0.02738854348
0	11067	102.204730314804	0.144358683341
0	11072	102.349088998145	0.079320710425
0	11077	102.42840970857	0.032143070108
0	11082	102.460552778678	0.068337244898
0	11087	102.528890023576	0.099040537636
0	11092	102.627930561212	0.002822306996
0	11094	102.630752868208	0.093071363024
0	11102	102.723824231232	0.030361657892
0	11107	102.754185889124	0.019217026081
0	11112	102.773402915205	0.036952705736
0	11117	102.810355620941	0.088279876279
0	11124	102.89863549722	0.051718063345
0	11129	102.950353560565	0.001885489705
0	11131	102.95223905027	0.052515018946
0	11139	103.004754069216	0.045350432543
0	11144	103.050104501759	0.022682681347
0	11149	103.072787183106	0.013068811819
0	11155	103.085855994925	0.041126040937
0	11162	103.126982035862	0.006423888527
0	11164	103.133405924389	0.032798532195
0	11172	103.166204456584	0.004003766821
0	11174	103.170208223405	0.108140440928
0	11183	103.278348664333	0.059583896987
0	11188	103.33793256132	0.03777934275
0	11193	103.37571190407	0.020766300528
0	11198	103.396478204598	0.029083167133
0	11203	103.425561371731	0.064506822244
0	11209	103.490068193975	0.025916473224
0	11214	103.515984667199	0.003379496683
0	11216	103.519364163882	0.042481600944
0	11224	103.561845764826	0.018938018871
0	11229	103.580783783697	0.081476159071
0	11235	103.662259942768	0.038771175689
0	11240	103.701031118457	0.038652989064
0	11245	103.739684107521	0.078204867047
0	11251	103.817888974568	0.054184485945
0	11256	103.872073460513	0.019191480359
0	11261	103.891264940872	0.066943020579
0	11266	103.958207961451	0.049160454331
0	11271	104.007368415782	0.036715972579
0	11276	104.044084388361	0.108568083073
0	11283	104.152652471434	0.027827516862
0	11288	104.180479988296	0.047837824876
0	11293	104.228317813172	0.10464270595
0	11298	104.332960519122	0.013260782386
0	11303	104.346221301508	0.027021826918
0	11308	104.373243128426	0.001235170773
0	11310	104.374478299199	0.030989524379
0	11318	104.405467823578	0.102049082285
0	11323	104.507516905863	0.23199488022
0	11330	104.739511786083	0.001074943553
0	11332	104.740586729636	1.1877566e-05
0	11334	104.740598607202	0.103852889823
0	11345	104.844451497025	0.010257379495
0	11350	104.85470887652	0.037638186016
0	11355	104.892347062536	0.024222484599
0	11360	104.916569547135	0.139899592361
0	11367	105.056469139496	0.134848028963
0	11373	105.191317168459	0.080168626137
0	11378	105.271485794596	0.003630131676
0	11380	105.275115926272	0.309109752643
0	11389	105.584225678915	0.000476535365
0	11391	105.58470221428	0.021593931153
0	11399	105.606296145433	0.002706119192
0	11401	105.609002264625	0.072876264264
0	11410	105.681878528889	0.004635565613
0	11412	105.686514094502	0.025702450653
0	11420	105.712216545155	0.001916088238
0	11422	105.714132633393	0.032684365318
0	11432	105.746816998711	0.032675301323
0	11437	105.779492300034	0.049376645551
0	11442	105.828868945585	0.0434652531
0	11447	105.872334198685	0.10344570452
0	11452	105.975779903205	0.015851216593
0	11457	105.991631119798	0.20701985276
0	11464	106.198650972558	0.025398766472
0	11469	106.22404973903	0.073109855822
0	11474	106.297159594852	0.004808991523
0	11476	106.301968586375	0.027044209944
0	11485	106.329012796319	0.020501560923
0	11490	106.349514357242	0.027353478575
0	11495	106.376867835817	0.036961565476
0	11500	106.413829401293	0.066890887937
0	11506	106.48072028923	0.06588915062
0	11511	106.54660943985	0.013641456445
0	11516	106.560250896295	0.000167598827
0	11518	106.560418495122	0.00585333331
0	11520	106.566271828432	0.03149085384
0	11531	106.597762682272	0.021895966643
0	11536	106.619658648915	0.017620124172
0	11541	106.637278773087	0.016930455349
0	11546	106.654209228436	0.095805567038
0	11552	106.750014795474	0.017570734157
0	11557	106.767585529631	0.062860472527
0	11563	106.830446002158	0.013303058452
0	11568	106.84374906061	0.04447130875
0	11573	106.88822036936	0.002150239231
0	11575	106.890370608591	0.016235677521
0	11583	106.906606286112	0.000901779796
0	11585	106.907508065908	0.12058602476
0	11594	107.028094090668	0.219998909914
0	11601	107.248093000582	0.002307468265
0	11603	107.250400468847	0.027910987436
0	11611	107.278311456283	0.005796789591
0	11613	107.284108245874	0.024251936438
0	11621	107.308360182312	0.024848613068
0	11626	107.33320879538	0.056916633122
0	11632	107.390125428502	0.00664444032
0	11634	107.396769868822	0.012311262505
0	11642	107.409081131327	0.156652910286
0	11649	107.565734041613	0.149747812562
0	11656	107.715481854175	0.079971734895
0	11662	107.79545358907	0.077169640168
0	11667	107.872623229238	0.014986562109
0	11672	107.887609791347	0.004683181819
0	11674	107.892292973166	0.044403902946
0	11684	107.936696876112	0.027028238173
0	11689	107.963725114285	0.201795792571
0	11695	108.165520906856	0.105647147497
0	11700	108.271168054353	0.10779409445
0	11705	108.378962148803	0.144778078845
0	11710	108.523740227648	0.045914442378
0	11715	108.569654670026	0.031499371742
0	11720	108.601154041768	0.117026794707
0	11725	108.718180836475	0.047519708037
0	11730	108.765700544512	0.226340639352
0	11737	108.992041183864	0.009138119466
0	11742	109.00117930333	0.068002648285
0	11747	109.069181951615	0.236472256609
0	11757	109.305654208224	0.003359710669
0	11759	109.309013918893	0.01317690845
0	11767	109.322190827343	0.025673140824
0	11772	109.347863968167	0.143000464987
0	11778	109.490864433154	0.090954191207
0	11783	109.581818624361	0.052440653725
0	11789	109.634259278086	0.013105212664
0	11794	109.64736449075	0.046791110948
0	11799	109.694155601698	0.088787176036
0	11805	109.782942777734	0.035942587824
0	11810	109.818885365558	0.006410920198
0	11812	109.825296285756	0.013111751516
0	11820	109.838408037272	0.002404152015
0	11822	109.840812189287	0.009711288342
0	11828	109.850523477629	0.024232771463
0	11836	109.874756249092	0.012454245287
0	11841	109.887210494379	0.001871177222
0	11843	109.889081671601	0.010316672968
0	11848	109.899398344569	0.157643009209
0	11857	110.057041353778	0.075612036588
0	11862	110.132653390366	0.08749414273
0	11868	110.220147533096	0.021548781684
0	11873	110.24169631478	0.080664688744
0	11878	110.322361003524	0.002979150217
0	11880	110.325340153741	0.049682611949
0	11889	110.37502276569	0.173854213493
0	11894	110.548876979183	0.012187981844
0	11899	110.561064961027	0.107616048443
0	11906	110.66868100947	0.036517574011
0	11911	110.705198583481	0.131382724933
0	11919	110.836581308414	0.045474951072
0	11924	110.882056259486	0.264002507197
0	11930	111.146058766683	0.037225339993
0	11935	111.183284106676	0.009551685106
0	11940	111.192835791782	0.015071025441
0	11945	111.207906817223	0.0252290926
0	11950	111.233135909823	0.03620588461
0	11955	111.269341794433	0.070990173836
0	11960	111.340331968269	0.033783670956
0	11966	111.374115639225	0.059539770011
0	11972	111.433655409236	0.280456967483
0	11981	111.714112376719	0.008355644161
0	11986	111.72246802088	0.113863483687
0	11991	111.836331504567	0.084595651172
0	11997	111.920927155739	0.031123323102
0	12002	111.952050478841	0.012708533138
0	12007	111.964759011979	0.048767200765
0	12013	112.013526212744	0.012668387685
0	12018	112.026194600429	0.068890841182
0	12024	112.095085441611	0.038498649538
0	12029	112.133584091149	0.001774372914
0	12031	112.135358464063	0.044939725619
0	12039	112.180298189682	0.112652349765
0	12044	112.292950539447	0.043385291874
0	12049	112.336335831321	0.098350955011
[...]
19	23221	215.40389139274	0.7010447721454
19	23317	216.104936164885	1.4964277128842
19	23472	217.601363877769	0.10619121700995
19	23499	217.707555094779	0.83089495780035
19	23591	218.538450052579	1.5590130808138
19	23779	220.097463133393	1.0063159677115
19	23856	221.103779101105	2.7541725940996
19	24152	223.857951695205	0.78028718741884
19	24222	224.638238882624	0.079634621198205
19	24234	224.717873503822	1.7020831262348
19	24434	226.419956630057	3.4991695204225
19	24872	229.919126150479	0.98390561893456
19	24968	230.903031769414	2.2571952716999
19	25214	233.160227041114	2.1676667373857
19	25450	235.3278937785	2.5782905944951
19	25762	237.906184372995	0.2728647952858
19	25811	238.179049168281	6.385075909688
19	26495	244.564125077969	9.9547478955156
19	27446	254.518872973485	5.0552575886743
19	28079	259.574130562159	0.7721807406564
19	28184	260.346311302815	0.4058775687928
19	28229	260.752188871608	0.57545070203401
19	28291	261.327639573642	0.2706027179677
19	28302	261.59824229161	0.30983583473041
19	28335	261.90807812634	1.4871334912508
19	28481	263.395211617591	2.5593596069095
19	28741	265.954571224501	1.959169228599
19	28987	267.9137404531	2.9181059836002
19	29341	270.8318464367	4.0529631008972
19	29722	274.884809537597	0.053618097934258
19	29723	274.938427635531	3.2669651613814
19	30041	278.205392796912	0.99540277559436
19	30117	279.200795572506	2.510114592459
19	30333	281.710910164965	0.82396354677423
19	30416	282.534873711739	2.5137706743107
19	30661	285.04864438605	0.51319255302504
19	30722	285.561836939075	5.7430803219651
19	31343	291.30491726104	0.3688690940692
19	31398	291.673786355109	2.9902120644151
19	31718	294.663998419524	0.18286371995631
19	31739	294.84686213948	0.79254184521797
19	31832	295.639403984698	4.6371039405443
19	32313	300.276507925242	0.71481139625294
19	32394	300.991319321495	0.30595281411632
19	32418	301.297272135611	5.6461629186986
19	33039	306.94343505431	0.42392525326269
19	33095	307.367360307573	0.55483244034152
19	33163	307.922192747915	1.048902639622
19	33282	308.971095387537	1.392492351342
19	33431	310.363587738879	0.23833475119935
19	33443	310.601922490078	1.7096045860825
19	33632	312.311527076161	1.9834451915106
19	33871	314.294972267672	7.1275558409687
19	34645	321.422528108641	3.1341482797586
19	35084	324.5566763884	2.5664931911219
19	35361	327.123169579522	2.102104624433
19	35610	329.225274203955	1.1471533446104
19	35685	330.372427548565	1.728350427915
19	35936	332.10077797648	10.423356157053
19	37031	342.524134133533	3.5017042701557
19	37345	346.025838403689	2.8580628997257
19	37640	348.883901303415	0.554864344463
19	37707	349.438765647878	0.83358949915855
19	37810	350.272355147037	1.0823435553402
19	37882	351.354698702377	4.9301415998374
19	38459	356.284840302214	3.0216412018023
19	38772	359.306481504016	6.3556558005033
19	39448	365.662137304519	0.012896524245422
19	39449	365.675033828764	10.007698407501
19	40499	375.682732236265	6.0407843714631
19	41187	381.723516607728	3.5083945140545
19	41569	385.231911121782	2.7564451699536
19	41918	387.988356291736	0.072980875590684
19	41926	388.061337167327	0.1685051274646
19	41936	388.229842294792	6.8499518791302
19	42676	395.079794173922	2.9261820616241
19	43065	398.005976235546	0.19849295699593
19	43100	398.204469192542	1.5496337758267
19	43320	399.754102968369	4.0210268267274
20	1754	15.348621808122	0.41756840530355
20	1803	15.766190213426	1.3454190607493
20	1961	17.111609274175	3.7033744874498
20	2288	20.814983761625	0.43607753465932
20	2342	21.251061296284	2.7947387902507
20	2613	24.045800086535	0.076869004967239
20	2619	24.122669091502	2.4021383803823
20	2834	26.524807471884	2.2952835352241
20	3117	28.820091007108	4.2840112333591
20	3652	33.104102240467	2.4488536252821
20	3924	35.552955865749	0.74833395119579
20	3978	36.301289816945	1.2936819886047
20	4171	37.59497180555	7.7255397900563
20	4908	45.320511595606	1.6573758093533
20	5105	46.977887404959	6.1499632059828
20	5671	53.127850610942	0.26988142683974
20	5690	53.397732037782	0.72645160826051
20	5770	54.124183646043	1.6380712933417
20	5894	55.762254939385	1.7587378436209
20	6095	57.520992783006	3.3213331263286
20	6469	60.842325909335	0.65223971279145
20	6579	61.494565622126	0.13398145475998
20	6605	61.628547076886	3.7034380580766
20	7087	65.331985134963	3.5355352597572
20	7450	68.86752039472	3.6915807908416
20	7843	72.559101185562	0.27764412169786
20	7869	72.83674530726	6.3567586120869
20	8579	79.193503919347	0.71017039872847
20	8645	79.903674318075	0.20102083359483
20	8664	80.10469515167	0.55871993896002
20	8733	80.66341509063	0.66341735867117
20	8791	81.326832449301	3.7183735168152
20	9228	85.045205966116	3.9004979637127
20	9670	88.945703929829	2.745056883768
20	9968	91.690760813597	2.4947266566809
20	10255	94.185487470278	0.67311473081925
20	10338	94.858602201097	3.533808000597
20	10765	98.392410201694	0.0081085038585079
20	10766	98.400518705553	1.2809610070272
20	10872	99.68147971258	0.77506698429825
20	10931	100.456546696878	5.9771769005168
20	11505	106.433723597395	3.0232515452859
20	11777	109.456975142681	0.90437915033803
20	11888	110.361354293019	6.8871943563754
20	12547	117.248548649394	1.6060184984261
20	12757	118.85456714782	0.17870960877108
20	12769	119.033276756591	0.076847275235331
20	12775	119.110124031826	2.4573887407773
20	13016	121.567512772603	0.78851190761831
20	13095	122.356024680221	2.1571065072899
20	13294	124.513131187511	0.26585174664409
20	13318	124.778982934155	1.7367605402447
20	13510	126.5157434744	0.98411794765844
20	13644	127.499861422058	2.3564758959071
20	13881	129.856337317965	0.54684778183715
20	13965	130.403185099802	0.40926608610735
20	13998	130.812451185909	1.5860297226137
20	14152	132.398480908523	1.532401402515
20	14336	133.930882311038	1.7923683975686
20	14528	135.723250708607	0.083504567225922
20	14536	135.806755275833	2.3781071537851
20	14766	138.184862429618	3.2231699220248
20	15183	141.408032351643	3.7620979137215
20	15606	145.170130265364	3.9339397926789
20	15923	149.104070058043	4.3605680866139
20	16406	153.464638144657	1.6392625210707
20	16606	155.103900665728	3.4137088036136
20	16981	158.517609469342	0.19890725468518
20	17027	158.716516724027	0.20756253629106
20	17065	158.924079260318	2.1817355521974
20	17329	161.105814812515	0.13636432747867
20	17351	161.242179139994	0.54959380442894
20	17427	161.791772944423	0.82936633113841
20	17491	162.621139275561	0.2772491556411
20	17514	162.898388431202	0.97347056695747
20	17617	163.871858998159	1.3622178458506
20	17746	165.23407684401	4.0615695270133
20	18172	169.295646371023	1.3709615934546
20	18325	170.666607964478	1.5506224955576
20	18505	172.217230460036	2.1031359132364
20	18761	174.320366373272	4.6213442433328
20	19293	178.941710616605	0.31138103632473
20	19320	179.25309165293	2.8448634615448
20	19619	182.097955114475	0.13552892466551
20	19656	182.233484039141	0.52980003360115
20	19701	182.763284072742	0.038317555908658
20	19702	182.801601628651	2.3132294059847
20	19950	185.114831034636	0.17963919100984
20	19967	185.294470225646	0.11428853934024
20	19973	185.408758764986	0.96450481038042
20	20056	186.373263575366	2.9172536385933
20	20373	189.290517213959	2.3821326875711
20	20612	191.67264990153	1.1690562683142
20	20779	192.841706169844	0.14965694035619
20	20802	192.9913631102	6.5111398429858
20	21521	199.502502953186	1.0394058743372
20	21666	200.541908827523	3.1847539588862
20	22013	203.726662786409	0.31927134995351
20	22041	204.045934136363	1.3840172675603
20	22204	205.429951403923	0.74722704225624
20	22288	206.177178446179	0.22530745511742
20	22320	206.402485901296	2.0430122042075
20	22544	208.445498105503	0.28338589475948
20	22587	208.728884000262	0.067734990211513
20	22593	208.796618990474	0.37241622592662
20	22640	209.169035216401	0.31762508579171
20	22667	209.486660302193	0.42353140862355
20	22715	209.910191710817	2.0084333652677
20	22891	211.918625076085	0.1833866130689
20	22908	212.102011689154	2.2397281659794
20	23117	214.341739855133	3.0356330850961
20	23463	217.377372940229	1.6900985276116
20	23642	219.067471467841	1.9021770896036
20	23845	220.969648557445	0.72427199194477
20	23891	221.69392054939	3.007135021832
20	24230	224.701055571222	3.3423732980144
20	24585	228.043428869236	3.248440948312
20	25025	231.291869817548	1.5924507413032
20	25178	232.884320558851	0.65821648773885
20	25266	233.54253704659	1.9098601837994
20	25462	235.452397230389	0.5947179082546
20	25555	236.047115138644	0.46634797799602
20	25599	236.51346311664	0.5323200882124
20	25666	237.045783204852	2.2036465862159
20	25958	239.249429791068	3.181373315106
20	26289	242.430803106174	0.016957938879059
20	26291	242.447761045053	2.295693138681
20	26520	244.743454183734	0.18126072829029
20	26543	244.924714912024	0.054737012415753
20	26549	244.97945192444	0.073040908361526
20	26551	245.052492832802	0.13544076754293
20	26554	245.187933600345	1.1738520432691
20	26685	246.361785643614	0.94344354364287
20	26790	247.305229187257	4.5709069681507
20	27211	251.876136155408	0.13524518597794
20	27232	252.011381341386	0.9647751030879
20	27310	252.976156444474	2.0009671706734
20	27500	254.977123615147	2.1183268930021
20	27782	257.095450508149	6.2240590365758
20	28480	263.319509544725	0.53304896981956
20	28526	263.852558514545	2.016999165712
20	28735	265.869557680257	0.24877148498315
20	28758	266.11832916524	3.0536414279934
20	29126	269.171970593233	2.5095847919218
20	29430	271.681555385155	1.0011135438351
20	29518	272.68266892899	5.0944771037547
20	30032	277.777146032745	0.46631839755251
20	30044	278.243464430298	0.21753449825383
20	30063	278.460998928552	0.83235287454881
20	30129	279.293351803101	0.74281226549538
20	30205	280.036164068596	1.9872165378011
20	30371	282.023380606397	2.0116800332066
20	30599	284.035060639604	1.2157196221832
20	30693	285.250780261787	0.16024897877141
20	30715	285.411029240558	3.3407751277441
20	31029	288.751804368302	2.2681735688164
20	31308	291.019977937118	0.0062178652399565
20	31309	291.026195802358	0.14080073616238
20	31320	291.16699653852	2.5624261094241
20	31609	293.729422647944	0.62304342148497
20	31664	294.352466069429	3.7909320984166
20	32099	298.143398167846	1.7372876739897
20	32280	299.880685841836	0.13004977625287
20	32298	300.010735618089	0.53275419304288
20	32344	300.543489811132	3.2078017275953
20	32707	303.751291538727	1.8908871449774
20	32859	305.642178683704	0.7560157419895
20	32980	306.398194425694	0.43092598248091
20	33031	306.829120408175	6.2688957081434
20	33751	313.098016116318	1.5010596658585
20	33892	314.599075782177	0.72652776762582
20	33981	315.325603549803	1.1857925304889
20	34094	316.511396080292	4.0474299907902
20	34558	320.558826071082	0.71081332124598
20	34631	321.269639392328	0.32855599606002
20	34681	321.598195388388	2.2561419277032
20	35002	323.854337316091	2.3812735983561
20	35265	326.235610914447	0.46071024935284
20	35310	326.6963211638	0.085629761776283
20	35324	326.781950925576	1.8911524755186
20	35556	328.673103401095	0.75362548637026
20	35627	329.426728887465	0.64881625520379
20	35678	330.075545142669	2.0891985736324
20	35939	332.164743716301	6.7649726799592
20	36693	338.92971639626	1.0142279123398
20	36772	339.9439443086	2.1009800926464
20	36974	342.044924401246	4.4647500714519
20	37389	346.509674472698	0.10286271370601
20	37397	346.612537186404	2.1996227713785
20	37628	348.812159957782	0.119049379949
20	37649	348.931209337731	4.3018401712691
20	38078	353.233049509	0.82912924302789
20	38157	354.062178752028	1.4109487043909
20	38329	355.473127456419	0.87717950946236
20	38465	356.350306965881	1.0706535547288
20	38574	357.42096052061	5.3362398362259
20	39114	362.757200356836	0.26738080769836
20	39136	363.024581164534	0.56885957106348
20	39216	363.593440735597	0.58271131329399
20	39309	364.176152048891	1.6968432050911
20	39451	365.872995253982	0.045439857985929
20	39452	365.918435111968	0.066521586445929
20	39453	365.984956698414	6.2136910473671
20	40140	372.198647745781	2.5315813985342
20	40392	374.730229144315	0.05452555363793
20	40397	374.784754697953	4.5136016308344
20	40909	379.298356328787	2.55806962551
20	41189	381.856425954297	2.8616535571784
20	41537	384.718079511475	1.1333349277271
20	41645	385.851414439202	4.2401528070156
20	42144	390.091567246218	1.2544210168375
20	42272	391.345988263055	0.48361814803613
20	42321	391.829606411091	1.0686854726102
20	42395	392.898291883701	0.30544284231759
20	42427	393.203734726019	1.0840692580683
20	42560	394.287803984087	4.63182512055
20	43197	398.919629104637	0.076347324820302
20	43208	398.995976429457	6.128047972004
21	1775	15.630124717799	0.03196975165144
21	1786	15.66209446945	5.4430078381306
21	2307	21.105102307581	1.8686430105127
21	2509	22.973745318094	6.0298525992211
21	3129	29.003597917315	0.038468991431432
21	3135	29.042066908746	0.90050332062901
21	3254	29.942570229375	0.62437598362635
21	3316	30.566946213001	2.605742971066
21	3675	33.172689184067	0.82505090523821
21	3781	33.997740089305	1.7023753754936
21	3938	35.700115464799	1.7328855960889
21	4149	37.433001060888	1.5944451830672
21	4310	39.027446243955	2.4231117940621
21	4561	41.450558038017	1.4241488059242
21	4676	42.874706843941	6.9994715635909
21	5358	49.874178407532	1.3631312448464
21	5511	51.237309652378	0.32222780225908
21	5533	51.559537454637	1.7799159094791
21	5684	53.339453364116	1.4939458801513
21	5798	54.833399244267	1.1897375736925
21	5944	56.023136817959	3.8752306057216
21	6326	59.898367423681	1.0411514363286
21	6472	60.93951886001	0.33403692120117
21	6545	61.273555781211	0.12663975376419
21	6573	61.400195534975	2.4886789994311
21	6879	63.888874534406	6.1944180052008
21	7609	70.083292539607	4.2571968276426
21	8032	74.34048936725	3.1436495643215
21	8376	77.484138931572	1.2923288071061
21	8537	78.776467738678	0.3684344519053
21	8568	79.144902190583	1.0321618554252
21	8677	80.177064046008	1.2838949850932
21	8805	81.460959031101	0.028396988783863
21	8807	81.489356019885	7.2726249265276
21	9657	88.761980946413	4.9234196100151
21	10191	93.685400556428	0.20655144406933
21	10235	93.891952000497	3.1794389787122
21	10586	97.071390979209	1.8714653923004
21	10803	98.942856371509	0.58356036254251
21	10854	99.526416734052	3.5852003945502
21	11161	103.111617128602	1.5080347268198
21	11328	104.619651855422	2.1685082001418
21	11562	106.788160055564	4.0419367981312
21	11918	110.830096853695	3.9763981935722
21	12322	114.806495047267	3.8799461403968
21	12724	118.686441187664	4.3309214401726
21	13170	123.017362627837	1.7361418799329
21	13317	124.75350450777	0.55663999412966
21	13381	125.3101445019	4.9416961018712
21	13949	130.251840603771	6.0713726661322
21	14575	136.323213269903	4.6908501603071
21	15118	141.01406343021	0.87944425946503
21	15219	141.893507689675	0.98031377732506
21	15353	142.873821467	0.049452830586666
21	15366	142.923274297587	1.1418631162197
21	15461	144.065137413807	0.18912056631596
21	15487	144.254257980123	0.63224456128155
21	15573	144.886502541405	0.0054334114018133
21	15574	144.891935952807	2.1493994107568
21	15764	147.041335363564	0.44854816917069
21	15810	147.489883532735	1.0831254338691
21	15865	148.573008966604	4.1504792982616
21	16332	152.723488264866	1.789210873425
21	16542	154.512699138291	1.9725853360423
21	16757	156.485284474333	0.85722077142715
21	16844	157.34250524576	2.7959996247386
21	17192	160.138504870499	0.96294642273744
21	17328	161.101451293236	2.6955204775325
21	17611	163.796971770768	0.296811511112
21	17645	164.09378328188	3.2218331764303
21	17970	167.31561645831	1.5266331239268
21	18126	168.842249582237	4.381308291619
21	18618	173.223557873856	0.15899868863033
21	18639	173.382556562486	1.1528229149958
21	18791	174.535379477482	0.96321108692204
21	18914	175.498590564404	0.41984676729376
21	18973	175.918437331698	6.3610182001559
21	19658	182.279455531854	3.7134895675243
21	20027	185.992945099378	1.2121240220948
21	20148	187.205069121473	3.5350263977092
21	20544	190.740095519182	7.410393614984
21	21360	198.150489134166	3.3971250745572
21	21795	201.547614208723	1.7207536768236
21	21947	203.268367885547	0.66784544134597
21	22033	203.936213326893	0.19114710664558
21	22050	204.127360433539	5.4074842525636
21	22673	209.534844686103	1.4791998624901
21	22830	211.014044548593	0.44879700551844
21	22866	211.462841554111	1.3076166614153
21	22956	212.770458215526	0.95177592392886
21	23058	213.722234139455	0.34921353819266
21	23094	214.071447677648	0.26840087009355
21	23116	214.339848547742	1.147896948351
21	23233	215.487745496093	3.945218481718
21	23686	219.432963977811	10.512156615066
21	24878	229.945120592877	1.7194692421341
21	25059	231.664589835011	3.7241706148966
21	25458	235.388760449908	4.2389090012467
21	25982	239.627669451155	1.1539480308677
21	26137	240.781617482023	0.77474147204328
21	26222	241.556358954066	0.24768611175713
21	26228	241.804045065823	0.56214332687209
21	26273	242.366188392695	0.94879897765284
21	26368	243.314987370348	3.5602599174376
21	26737	246.875247287786	1.3896784617904
21	26853	248.264925749576	0.29920124275507
21	26905	248.564126992331	0.47685665395422
21	26950	249.040983646285	0.44247498705338
21	26985	249.483458633338	2.5829500657997
21	27240	252.066408699138	3.7041141160258
21	27601	255.770522815164	1.7972710354495
21	27835	257.567793850613	0.96166274387885
21	27953	258.529456594492	1.2347552007899
21	28115	259.764211795282	2.822999569497
21	28400	262.587211364779	2.7253629240747
21	28680	265.312574288854	0.93406217740238
21	28776	266.246636466256	3.0972441036873
21	29152	269.343880569943	0.0067677130067514
21	29153	269.35064828295	1.7941255685831
21	29371	271.144773851533	1.5566042606884
21	29524	272.701378112221	1.3465024608083
21	29637	274.047880573029	1.0164058721015
21	29734	275.06428644513	6.9463035806038
21	30365	282.010590025734	2.9742499150225
21	30654	284.984839940756	2.9655361379522
21	30965	287.950376078708	1.4262409667412
21	31100	289.376617045449	1.583429045053
21	31286	290.960046090502	1.2634410636226
21	31477	292.223487154125	2.7706185301171
21	31752	294.994105684242	7.4836646458284
21	32563	302.47777033007	7.0815853797081
21	33359	309.559355709778	3.3501231988869
21	33717	312.909478908665	1.6900615600563
21	33893	314.599540468721	3.3415049029887
21	34301	317.94104537171	0.28908979078069
21	34319	318.230135162491	3.1770181283952
21	34644	321.407153290886	1.6400353233484
21	34900	323.047188614234	1.4688340999163
21	35082	324.51602271415	5.1409636520644
21	35653	329.656986366214	0.086145984105116
21	35660	329.743132350319	0.15671112488698
21	35661	329.899843475206	3.5012388210761
21	36085	333.401082296282	1.2485049775299
21	36229	334.649587273812	1.6899186353884
21	36434	336.3395059092	1.0174238163254
21	36522	337.356929725525	0.80613687242281
21	36629	338.163066597948	0.2231604014169
21	36648	338.386226999365	0.32331957286317
21	36679	338.709546572228	3.0467846005287
21	36908	341.756331172757	1.7958658610508
21	37123	343.552197033808	0.6525963466035
21	37193	344.204793380412	0.27275377496363
21	37221	344.477547155376	1.4885582879453
21	37334	345.966105443321	3.797497240523
21	37761	349.763602683844	1.3538766294818
21	37876	351.117479313326	0.08112655939271
21	37878	351.198605872719	3.8952288012553
21	38296	355.093834673974	0.78505173233007
21	38387	355.878886406304	1.9897460520742
21	38628	357.868632458378	3.1611516432067
21	38942	361.029784101585	5.5209882675944
21	39510	366.550772369179	0.51762634790631
21	39574	367.068398717085	8.2335221019236
21	40446	375.301920819009	0.50826623541405
21	40511	375.810187054423	0.48974782086003
21	40555	376.299934875283	0.63063732639874
21	40628	376.930572201682	4.5594893964401
21	41127	381.490061598122	1.2231470532308
21	41278	382.713208651353	0.19966616780749
21	41309	382.91287481916	0.882400709681
21	41411	383.795275528841	0.45530509494689
21	41471	384.250580623788	3.8159143692099
21	41930	388.066494992998	0.26690420007449
21	41948	388.333399193072	1.6884683745053
21	42135	390.021867567577	3.2329663855056
21	42443	393.254833953083	2.8610100907208
21	42796	396.115844043804	1.5029448191065
21	43012	397.61878886291	0.79403506829268
21	43125	398.412823931203	1.3657661265635
21	43326	399.778590057766	1.6865721050783

