file 9779603 1614185313                                         
version 2
run Nonmonitoring-exponential-61-20210224-17:48:32-26575
attr configname Nonmonitoring-exponential
attr datetime 20210224-17:48:32
attr experiment Nonmonitoring-exponential
attr inifile aerocom.ini
attr iterationvars $0=9
attr iterationvarsf 9-
attr measurement $0=9
attr network Aerocom
attr processid 26575
attr repetition 61
attr replication #61
attr resultdir results
attr runnumber 61
attr seedset 61
param **.t 2s
param **.k 9ms
param **.X 0.05s
param **.m 1s
param **.tDistribution "\"exponential\""
param **.operationMode 1
param **.s "70 byte"
param **.dimPoolMax 10000
param **.dimPoolMin 8000
param **.nDL 16
param **.nA 1
param **.DLMaxCapacity 0
param **.trasmitting false

vector 0 Aerocom.aircraft[0].packetGenerator arrivalTime:vector ETV
attr "" ""
attr source computeArrivalTime
vector 1 Aerocom.aircraft[0].linkSelector responseTime:vector ETV
attr "" ""
attr source computeResponseTime
vector 2 Aerocom.aircraft[0].linkSelector waitingTime:vector ETV
attr "" ""
attr source computeWaitingTime
vector 3 Aerocom.aircraft[0].linkSelector queueLength:vector ETV
attr "" ""
attr source computeQueueLength
vector 4 Aerocom.aircraft[0].dataLink[5] actualCapacity:vector ETV
attr "" ""
attr source computeActualCapacity
vector 5 Aerocom.aircraft[0].linkSelector serviceTime:vector ETV
attr "" ""
attr source computeServiceTime
vector 6 Aerocom.aircraft[0].dataLink[2] tDistribution:vector ETV
attr "" ""
attr source computeTDistribution
vector 7 Aerocom.aircraft[0].dataLink[10] tDistribution:vector ETV
attr "" ""
attr source computeTDistribution
vector 8 Aerocom.aircraft[0].dataLink[1] tDistribution:vector ETV
attr "" ""
attr source computeTDistribution
vector 9 Aerocom.aircraft[0].dataLink[13] tDistribution:vector ETV
attr "" ""
attr source computeTDistribution
vector 10 Aerocom.aircraft[0].dataLink[15] tDistribution:vector ETV
attr "" ""
attr source computeTDistribution
vector 11 Aerocom.aircraft[0].dataLink[5] tDistribution:vector ETV
attr "" ""
attr source computeTDistribution
vector 12 Aerocom.aircraft[0].dataLink[8] tDistribution:vector ETV
attr "" ""
attr source computeTDistribution
vector 13 Aerocom.aircraft[0].dataLink[0] tDistribution:vector ETV
attr "" ""
attr source computeTDistribution
vector 14 Aerocom.aircraft[0].dataLink[12] tDistribution:vector ETV
attr "" ""
attr source computeTDistribution
vector 15 Aerocom.aircraft[0].dataLink[4] tDistribution:vector ETV
attr "" ""
attr source computeTDistribution
vector 16 Aerocom.aircraft[0].dataLink[7] tDistribution:vector ETV
attr "" ""
attr source computeTDistribution
vector 17 Aerocom.aircraft[0].dataLink[6] tDistribution:vector ETV
attr "" ""
attr source computeTDistribution
vector 18 Aerocom.aircraft[0].dataLink[11] tDistribution:vector ETV
attr "" ""
attr source computeTDistribution
vector 19 Aerocom.aircraft[0].dataLink[14] tDistribution:vector ETV
attr "" ""
attr source computeTDistribution
vector 20 Aerocom.aircraft[0].dataLink[3] tDistribution:vector ETV
attr "" ""
attr source computeTDistribution
vector 21 Aerocom.aircraft[0].dataLink[9] tDistribution:vector ETV
attr "" ""
attr source computeTDistribution
1	3127 1306725 5547 171763 10.007445778299 303.093478119612 32768 0.007008410092 0.283910251183 1171.5581008461 76.656242333926
2	1309852 1251928 5547 171763 10.007445778299 303.093478119612 32768 0 0.2752757378 915.91301715183 60.147671695346
3	2561780 886486 5547 171763 10.007445778299 303.093478119612 32768 0 31 101695 830071
4	3448266 982583 5547 171763 10.007445778299 303.093478119612 32768 8016 9991 294721557 2657123942667
5	4430849 1436946 5547 171763 10.007445778299 303.093478119612 32768 0.0070063056751076 0.0087325349301397 255.64517076592 1.9993497616793
0	5867795 1306407 5545 171768 10.004477382573 303.097285521652 32768 3.60976e-07 0.105285529967 293.10896816041 5.2265175434223
0	7174202 448409 171776 227578 303.113445542985 399.991530157114 11001 1.097583e-06 0.072395799177 96.895106615914 1.7169907057381
1	7622611 448831 171770 227580 303.101973265243 399.996579779883 11006 0.007114544161 0.308848208363 516.20762747885 50.931473480755
2	8071442 432509 171770 227580 303.101973265243 399.996579779883 11006 0 0.300736028504 430.30654550397 43.38410092105
3	8503951 308502 171770 227580 303.101973265243 399.996579779883 11006 0 36 49044 615040
4	8812453 340000 171770 227580 303.101973265243 399.996579779883 11006 8068 9848 99000054 892716378740
5	9152453 492656 171770 227580 303.101973265243 399.996579779883 11006 0.0071080422420796 0.0086762518591968 85.862834491528 0.671542017988
6	9645109 8898 5561 226576 10.035220428635 398.244423689014 214 0.0015381783745656 9.6247558962209 397.09953871684 1466.1367539005
7	9654007 8315 5589 225571 10.082326917837 396.245848266536 200 0.015436838223296 10.556714698862 391.80180340215 1532.6274053455
8	9662322 7340 5649 227046 10.208177600632 399.041174885018 177 0.013464194891037 12.452900081897 392.2648360301 1826.331294988
9	9669662 8010 5936 226368 10.772979529377 397.754747851465 193 0.0042190308238699 15.541232515688 389.44725645919 1679.0244113636
10	9677672 9136 5973 227335 10.838170997603 399.556028612875 215 0.018522427205749 8.1421877158349 390.47025497086 1329.1215298927
11	9686808 8320 6027 227294 10.949068533572 399.488164925336 196 0.0072370248268875 12.360631181887 391.70959239258 1528.881013184
12	9695128 9801 6129 226627 11.134911547553 398.350689065523 230 0.0037301991072919 8.9073906985059 389.51239015026 1244.2610937018
13	9704929 8828 6130 227553 11.139742604625 399.944145639249 207 0.0010113352995995 19.043279587669 389.08669786871 1718.4796341907
14	9713757 7139 6212 225451 11.3956625911 395.950066579287 168 0.0035642792492538 12.172240896944 389.96398048312 1660.8510902003
15	9720896 9160 6224 226505 11.439406519822 398.10787247822 215 0.0058180094045451 15.476231980149 389.32822141381 1603.544859559
16	9730056 8525 6508 226982 11.926221851995 398.922988876728 200 0.0027313854007887 11.126082638626 388.55956381129 1578.1427655549
17	9738581 8826 6530 227173 11.962086053573 399.302620506239 207 0.0047730334044866 8.898694628259 391.02834807491 1331.8182169263
18	9747407 7877 6576 227446 12.053712065038 399.758969255931 185 0.0012432167349627 9.0195087088087 389.19932985855 1525.1932965776
19	9755284 8242 6607 226881 12.103246059399 398.772779802617 194 0.0013557698604987 10.187138576409 390.70842105814 1374.7239486723
20	9763526 8031 6711 226244 12.373420248254 397.475709142651 188 0.0017360866345056 9.2916437317078 389.4668426191 1586.0990007749
21	9771557 8045 9892 227151 18.201114573328 399.278399277906 189 0.011662411070361 10.706869306366 381.80887232051 1616.9063981994

