file 8691971 1614185332                                         
version 2
run Nonmonitoring-exponential-157-20210224-17:48:51-26746
attr configname Nonmonitoring-exponential
attr datetime 20210224-17:48:51
attr experiment Nonmonitoring-exponential
attr inifile aerocom.ini
attr iterationvars $0=10
attr iterationvarsf 10-
attr measurement $0=10
attr network Aerocom
attr processid 26746
attr repetition 57
attr replication #57
attr resultdir results
attr runnumber 157
attr seedset 57
param **.t 2s
param **.k 10ms
param **.X 0.05s
param **.m 1s
param **.tDistribution "\"exponential\""
param **.operationMode 1
param **.s "70 byte"
param **.dimPoolMax 10000
param **.dimPoolMin 8000
param **.nDL 16
param **.nA 1
param **.DLMaxCapacity 0
param **.trasmitting false

vector 0 Aerocom.aircraft[0].linkSelector responseTime:vector ETV
attr "" ""
attr source computeResponseTime
vector 1 Aerocom.aircraft[0].linkSelector waitingTime:vector ETV
attr "" ""
attr source computeWaitingTime
vector 2 Aerocom.aircraft[0].linkSelector queueLength:vector ETV
attr "" ""
attr source computeQueueLength
vector 3 Aerocom.aircraft[0].dataLink[2] actualCapacity:vector ETV
attr "" ""
attr source computeActualCapacity
vector 4 Aerocom.aircraft[0].linkSelector serviceTime:vector ETV
attr "" ""
attr source computeServiceTime
vector 5 Aerocom.aircraft[0].dataLink[6] tDistribution:vector ETV
attr "" ""
attr source computeTDistribution
vector 6 Aerocom.aircraft[0].packetGenerator arrivalTime:vector ETV
attr "" ""
attr source computeArrivalTime
vector 7 Aerocom.aircraft[0].dataLink[1] tDistribution:vector ETV
attr "" ""
attr source computeTDistribution
vector 8 Aerocom.aircraft[0].dataLink[11] tDistribution:vector ETV
attr "" ""
attr source computeTDistribution
vector 9 Aerocom.aircraft[0].dataLink[10] tDistribution:vector ETV
attr "" ""
attr source computeTDistribution
vector 10 Aerocom.aircraft[0].dataLink[8] tDistribution:vector ETV
attr "" ""
attr source computeTDistribution
vector 11 Aerocom.aircraft[0].dataLink[2] tDistribution:vector ETV
attr "" ""
attr source computeTDistribution
vector 12 Aerocom.aircraft[0].dataLink[5] tDistribution:vector ETV
attr "" ""
attr source computeTDistribution
vector 13 Aerocom.aircraft[0].dataLink[3] tDistribution:vector ETV
attr "" ""
attr source computeTDistribution
vector 14 Aerocom.aircraft[0].dataLink[0] tDistribution:vector ETV
attr "" ""
attr source computeTDistribution
vector 15 Aerocom.aircraft[0].dataLink[9] tDistribution:vector ETV
attr "" ""
attr source computeTDistribution
vector 16 Aerocom.aircraft[0].dataLink[4] tDistribution:vector ETV
attr "" ""
attr source computeTDistribution
vector 17 Aerocom.aircraft[0].dataLink[7] tDistribution:vector ETV
attr "" ""
attr source computeTDistribution
vector 18 Aerocom.aircraft[0].dataLink[13] tDistribution:vector ETV
attr "" ""
attr source computeTDistribution
vector 19 Aerocom.aircraft[0].dataLink[15] tDistribution:vector ETV
attr "" ""
attr source computeTDistribution
vector 20 Aerocom.aircraft[0].dataLink[14] tDistribution:vector ETV
attr "" ""
attr source computeTDistribution
vector 21 Aerocom.aircraft[0].dataLink[12] tDistribution:vector ETV
attr "" ""
attr source computeTDistribution
0	3133 1307378 5035 171480 10.001175617752 336.642096354022 32768 0.007007007007 0.14683071631 731.74317454138 25.787483400409
1	1310511 1217024 5035 171480 10.001175617752 336.642096354022 32768 0 0.138603165769 475.99771394116 16.26533252786
2	2527535 885428 5035 171480 10.001175617752 336.642096354022 32768 0 16 47618 205196
3	3412963 983475 5035 171480 10.001175617752 336.642096354022 32768 8000 9995 294526659 2652835438853
4	4396438 1437874 5035 171480 10.001175617752 336.642096354022 32768 0.0070035017508754 0.00875 255.73786077245 2.0001908911369
6	5834312 1307267 5048 171493 10.039452523428 336.659265309011 32768 2.95115e-07 0.120016380381 326.62170733569 6.5565902212905
0	7141579 259693 171485 203788 336.649382707722 399.988318564059 6367 0.007118885386 0.125557341392 145.17678125126 5.2315118130197
1	7401272 241679 171485 203787 336.649382707722 399.979946359777 6366 0 0.117621733184 95.061902462523 3.3298941514663
2	7642951 177600 171485 203787 336.649382707722 399.979946359777 6366 0 14 9550 42308
3	7820551 196645 171485 203787 336.649382707722 399.979946359777 6366 8006 9848 56738452 506767550258
4	8017196 284938 171485 203787 336.649382707722 399.979946359777 6366 0.0071080422420796 0.0087434424181864 50.102690169182 0.39513759555859
5	8302134 7032 5041 203333 10.016587665113 399.044086512894 170 0.028160325055255 13.503233018153 390.6177107576 1785.5853521835
6	8309166 259366 171495 203786 336.661159859117 399.979946359777 6363 1.094096e-06 0.094035474224 63.354015310786 1.2577903719241
7	8568532 8789 5125 203236 10.186494315563 398.867998023995 212 0.0010312944188182 10.156689371375 392.07523178238 1510.7323634263
8	8577321 7565 5346 203782 10.603686194588 399.961725682163 183 0.03355233545207 10.687411273554 391.99371523081 1527.1469389873
9	8584886 7220 5419 201700 10.818611408697 396.055901886654 174 0.0087847110589753 15.653660832364 389.34949162576 1836.9860685485
10	8592106 8119 5463 201812 10.914123066103 396.219824213624 191 0.0050544684024338 18.908718643248 390.59128209359 1698.7452847852
11	8600225 7815 5558 203517 11.098113908132 399.350393142889 184 0.0063120786597891 11.363149970657 389.20849830989 1538.4612759809
12	8608040 7772 5611 202625 11.208114853965 397.673219603982 183 0.032031259741367 11.412821108198 394.30575097176 1577.1237692978
13	8615812 8819 5707 203065 11.383831464939 398.519573879816 208 0.0053336743171345 11.248685231042 396.29638696854 1492.405780006
14	8624631 8950 5759 203507 11.564948568242 399.316260397476 210 0.0048882253233103 9.6737039286263 391.00810143294 1384.1823219958
15	8633581 10033 6204 202198 12.46753201116 396.871421328864 235 0.014855637781858 10.843843408998 388.76055499194 1289.1717104191
16	8643614 7601 6223 203256 12.508889471365 398.902734813424 179 0.0074668897886172 10.726614711377 392.20979041551 1719.1304615944
17	8651215 7536 6639 203387 13.343915200814 399.122891753762 178 0.0045388811047285 12.556046829894 388.90667953099 1676.4578365368
18	8658751 7977 6650 201947 13.359390043462 396.450794066616 188 0.0076273486837832 10.35305442501 387.01449161684 1541.0754632492
19	8666728 8126 6678 203585 13.420193393692 399.511343111584 191 0.026037350707617 14.983160217542 387.04468895456 1647.7312162535
20	8674854 8358 8169 203222 16.211122573566 398.804540405419 197 0.014360560599247 11.50896927027 383.79722844064 1432.6491510494
21	8683212 8758 9077 203621 18.067774207811 399.589810428428 206 0.037642546024253 8.7690317993261 382.92437578412 1373.615612447

