version 2
run Nonmonitoring-exponential-524-20210224-17:49:31-27059
attr configname Nonmonitoring-exponential
attr datetime 20210224-17:49:31
attr experiment Nonmonitoring-exponential
attr inifile aerocom.ini
attr iterationvars $0=50
attr iterationvarsf 50-
attr measurement $0=50
attr network Aerocom
attr processid 27059
attr repetition 24
attr replication #24
attr resultdir results
attr runnumber 524
attr seedset 24
param **.t 2s
param **.k 50ms
param **.X 0.05s
param **.m 1s
param **.tDistribution "\"exponential\""
param **.operationMode 1
param **.s "70 byte"
param **.dimPoolMax 10000
param **.dimPoolMin 8000
param **.nDL 16
param **.nA 1
param **.DLMaxCapacity 0
param **.trasmitting false

vector 0 Aerocom.aircraft[0].dataLink[1] tDistribution:vector ETV
attr "" ""
attr source computeTDistribution
vector 1 Aerocom.aircraft[0].dataLink[3] tDistribution:vector ETV
attr "" ""
attr source computeTDistribution
vector 2 Aerocom.aircraft[0].dataLink[7] tDistribution:vector ETV
attr "" ""
attr source computeTDistribution
vector 3 Aerocom.aircraft[0].packetGenerator arrivalTime:vector ETV
attr "" ""
attr source computeArrivalTime
vector 4 Aerocom.aircraft[0].linkSelector waitingTime:vector ETV
attr "" ""
attr source computeWaitingTime
vector 5 Aerocom.aircraft[0].linkSelector queueLength:vector ETV
attr "" ""
attr source computeQueueLength
vector 6 Aerocom.aircraft[0].dataLink[13] actualCapacity:vector ETV
attr "" ""
attr source computeActualCapacity
vector 7 Aerocom.aircraft[0].linkSelector serviceTime:vector ETV
attr "" ""
attr source computeServiceTime
vector 8 Aerocom.aircraft[0].linkSelector responseTime:vector ETV
attr "" ""
attr source computeResponseTime
vector 9 Aerocom.aircraft[0].dataLink[11] tDistribution:vector ETV
attr "" ""
attr source computeTDistribution
vector 10 Aerocom.aircraft[0].dataLink[12] tDistribution:vector ETV
attr "" ""
attr source computeTDistribution
vector 11 Aerocom.aircraft[0].dataLink[13] tDistribution:vector ETV
attr "" ""
attr source computeTDistribution
vector 12 Aerocom.aircraft[0].dataLink[8] tDistribution:vector ETV
attr "" ""
attr source computeTDistribution
vector 13 Aerocom.aircraft[0].dataLink[14] tDistribution:vector ETV
attr "" ""
attr source computeTDistribution
vector 14 Aerocom.aircraft[0].dataLink[9] tDistribution:vector ETV
attr "" ""
attr source computeTDistribution
vector 15 Aerocom.aircraft[0].dataLink[5] tDistribution:vector ETV
attr "" ""
attr source computeTDistribution
vector 16 Aerocom.aircraft[0].dataLink[10] tDistribution:vector ETV
attr "" ""
attr source computeTDistribution
vector 17 Aerocom.aircraft[0].dataLink[15] tDistribution:vector ETV
attr "" ""
attr source computeTDistribution
vector 18 Aerocom.aircraft[0].dataLink[0] tDistribution:vector ETV
attr "" ""
attr source computeTDistribution
vector 19 Aerocom.aircraft[0].dataLink[6] tDistribution:vector ETV
attr "" ""
attr source computeTDistribution
vector 20 Aerocom.aircraft[0].dataLink[2] tDistribution:vector ETV
attr "" ""
attr source computeTDistribution
vector 21 Aerocom.aircraft[0].dataLink[4] tDistribution:vector ETV
attr "" ""
attr source computeTDistribution
0	1187	10.042660162094	0.62111592677889
0	1251	10.663776088873	0.93057287291
0	1325	11.594348961783	2.9899055144343
0	1646	14.584254476217	1.6574377969111
0	1796	16.241692273128	0.65181602396617
0	1855	16.893508297094	3.5355503878217
0	2223	20.429058684916	3.0945348564797
0	2582	23.523593541396	8.8671750633655
0	3455	32.390768604762	0.8609676539244
0	3559	33.251736258686	3.9049078249119
0	3897	37.156644083598	10.700825472706
0	5096	47.857469556304	1.8030221608191
0	5331	49.660491717123	2.289688234258
0	5585	51.950179951381	7.0842951021636
0	6306	59.034475053545	3.0510841185968
0	6590	62.085559172142	3.4444568315743
0	6884	65.530016003716	0.50311874905637
0	6943	66.033134752772	2.8869626944979
0	7270	68.92009744727	1.6155761360528
0	7431	70.535673583323	6.8652561632022
0	8160	77.400929746525	1.9256832668509
0	8394	79.326613013376	0.14389429214669
0	8401	79.470507305523	2.1526368235555
0	8650	81.623144129079	2.3129743982227
0	8869	83.936118527302	4.9874362690801
0	9376	88.923554796382	1.0149348307788
0	9455	89.938489627161	0.14072686939009
0	9465	90.079216496551	14.135818076636
0	10940	104.215034573187	1.962677605198
0	11173	106.177712178385	8.4425714667656
0	12093	114.620283645151	2.9108055431524
0	12402	117.531089188303	0.068637305312171
0	12408	117.599726493615	0.59395181757114
0	12448	118.193678311186	0.056723828898343
0	12459	118.250402140084	0.82749123455021
0	12567	119.077893374634	1.8871607528488
0	12828	120.965054127483	0.40517741073208
0	12871	121.370231538215	1.2998978954333
0	13016	122.670129433648	1.7865604781285
0	13179	124.456689911776	5.7816580834029
0	13758	130.238347995179	1.198578460951
0	13862	131.43692645613	0.17680099902987
0	13882	131.61372745516	1.0059890786565
0	13989	132.619716533817	2.4745130550618
0	14277	135.094229588879	2.2777106342671
0	14564	137.371940223146	1.4577077070361
0	14734	138.829647930182	2.2040032630299
0	14929	141.033651193212	4.0534794429552
0	15384	145.087130636167	5.5702700997339
0	16039	150.657400735901	0.30865158498992
0	16079	150.966052320891	0.27124453431323
0	16095	151.237296855204	1.6822058742803
0	16267	152.919502729484	0.44376973056873
0	16307	153.363272460053	2.3139190280022
0	16562	155.677191488055	10.326093711769
0	17774	166.003285199824	0.36712500239759
0	17800	166.370410202222	0.11938714243901
0	17818	166.489797344661	0.19110255211269
0	17846	166.680899896774	8.1904294410953
0	18718	174.871329337869	4.5336675199188
0	19197	179.404996857788	0.62730351145478
0	19242	180.032300369243	4.0792581941171
0	19659	184.11155856336	3.1531552949972
0	20012	187.264713858357	0.56792779742836
0	20064	187.832641655785	1.1160221158423
0	20179	188.948663771627	1.0486885655392
0	20271	189.997352337166	6.4627201668659
0	20967	196.460072504032	0.59771770206604
0	21029	197.057790206098	0.13078145185714
0	21053	197.188571657955	0.47552690734425
0	21087	197.664098565299	0.92635883156605
0	21183	198.590457396865	4.4385758465606
0	21633	203.029033243426	3.4583861221135
0	22018	206.48741936554	3.1679002803111
0	22328	209.655319645851	2.2212892878064
0	22515	211.876608933657	0.62453174525023
0	22617	212.501140678907	1.004472954284
0	22737	213.505613633191	1.446038812767
0	22974	214.951652445958	0.27273889810881
0	23006	215.224391344067	3.7983196308294
0	23434	219.022710974896	1.5424960833667
0	23630	220.565207058263	0.09283076015511
0	23636	220.658037818418	2.5723922041882
0	23882	223.230430022606	2.3859705901984
0	24160	225.616400612804	0.29864428662993
0	24208	225.915044899434	2.233259344973
0	24416	228.148304244407	6.3940773212795
0	25151	234.542381565686	0.26089389200524
0	25185	234.803275457691	2.012505327938
0	25405	236.815780785629	2.6650896151423
0	25695	239.480870400771	2.601116357219
0	25953	242.08198675799	4.8124018118929
0	26525	246.894388569883	0.63114587368161
0	26597	247.525534443565	0.53245207672179
0	26675	248.057986520287	0.60705944236086
0	26751	248.665045962648	2.8622831382593
0	27042	251.527329100907	1.7380483807993
0	27244	253.265377481706	6.2403124175993
0	27839	259.505689899305	7.3860440927501
0	28605	266.891733992055	0.18121753546039
0	28622	267.072951527515	1.5458965087879
0	28755	268.618848036303	0.87331592367322
0	28865	269.492163959976	4.4450538297654
0	29348	273.937217789741	0.95489996018895
0	29431	274.89211774993	1.1272980815183
0	29575	276.019415831448	0.17148153878058
0	29597	276.190897370229	0.64893446993378
0	29669	276.839831840163	3.5477547677453
0	30058	280.387586607908	0.55901657582186
0	30088	280.94660318373	1.005955405504
0	30172	281.952558589234	1.0638067635153
0	30286	283.016365352749	3.1149073552295
0	30641	286.131272707979	2.1518887289497
0	30938	288.283161436929	1.5183768454288
0	31164	289.801538282358	3.7870935284977
0	31553	293.588631810856	1.3659780522902
0	31713	294.954609863146	0.26542474413153
0	31771	295.220034607278	0.80007496665403
0	31866	296.020109573932	2.4269172308058
0	32137	298.447026804738	1.0335113319745
0	32252	299.480538136712	0.55360119064576
0	32286	300.034139327358	1.6979671948421
0	32433	301.7321065222	0.37696694621327
0	32468	302.109073468413	3.6115889554022
0	32849	305.720662423815	4.5495175943889
0	33295	310.270180018204	0.82734288140986
0	33373	311.097522899614	1.7044864066971
0	33555	312.802009306311	0.90517261159997
0	33668	313.707181917911	0.67027167758311
0	33708	314.377453595494	3.1638815335289
0	34090	317.541335129023	1.8781176823592
0	34248	319.419452811382	2.300284679206
0	34503	321.719737490588	5.5102804764448
0	35106	327.230017967033	1.3728074666785
0	35250	328.602825433711	2.8693983547579
0	35524	331.472223788469	2.9468004867373
0	35856	334.419024275206	0.16879098072441
0	35862	334.58781525593	2.7719163924207
0	36193	337.359731648351	2.4289857506291
0	36414	339.78871739898	1.6712903172355
0	36626	341.460007716216	1.2551186449199
0	36775	342.715126361136	1.1430552890111
0	36916	343.858181650147	1.4077575725971
0	37066	345.265939222744	1.1326277458339
0	37149	346.398566968578	5.1768562726041
0	37656	351.575423241182	0.64823539845312
0	37727	352.223658639635	0.20321179169198
0	37736	352.426870431327	2.876888450277
0	38033	355.303758881604	3.9391740744474
0	38419	359.242932956051	2.4397187315793
0	38696	361.68265168763	2.6304294721958
0	39011	364.313081159826	4.2940245624546
0	39413	368.607105722281	0.40774693547811
0	39468	369.014852657759	2.2878642434726
0	39687	371.302716901232	2.5271432024667
0	39928	373.829860103699	0.74218268022033
0	40013	374.572042783919	6.2542362981365
0	40750	380.826279082055	1.0568611356381
0	40878	381.883140217693	1.3210157027621
0	41032	383.204155920455	2.1488007196116
0	41322	385.352956640067	2.2185816459329
0	41578	387.571538286	0.018083212080763
0	41582	387.589621498081	0.67193453264882
0	41644	388.26155603073	3.7245551510028
0	42049	391.986111181733	1.1398454366579
0	42126	393.125956618391	1.818838921718
0	42321	394.944795540109	0.77326731850839
0	42409	395.718062858617	1.1132051388983
0	42507	396.831267997515	0.11963310874326
0	42530	396.950901106258	5.7807815970036
1	1188	10.138130304376	2.4465874010235
1	1412	12.5847177054	1.7850410196277
1	1601	14.369758725028	0.97130070177911
1	1697	15.341059426807	0.18175992195589
1	1708	15.522819348763	2.2018365251453
1	1943	17.724655873908	1.7395063091096
1	2140	19.464162183018	1.3261446378567
1	2258	20.790306820875	0.076543350364941
1	2260	20.86685017124	0.06773663474339
1	2272	20.934586805983	2.9981955439943
1	2617	23.932782349977	0.46405375043151
1	2650	24.396836100409	0.065477548304982
1	2663	24.462313648714	3.8132349889136
1	3043	28.275548637628	9.6756159828031
1	4017	37.951164620431	0.46397056354486
1	4070	38.415135183976	0.077163409605407
1	4074	38.492298593581	2.0359721026102
1	4262	40.528270696191	4.1092662813736
1	4668	44.637536977565	0.18334122310758
1	4697	44.820878200673	5.0793118733316
1	5376	49.900190074005	0.25769388526817
1	5400	50.157883959273	3.7510938230262
1	5730	53.908977782299	2.470343030755
1	6015	56.379320813054	0.053479571019188
1	6019	56.432800384073	2.6248965222687
1	6307	59.057696906342	0.32242257766408
1	6345	59.380119484006	5.6300943309671
1	6830	65.010213814973	2.1404186501042
1	7063	67.150632465077	0.9118458371359
1	7158	68.062478302213	4.1202443303961
1	7571	72.182722632609	2.2636468335523
1	7829	74.446369466161	4.2060105264
1	8327	78.652379992561	4.1050556264957
1	8751	82.757435619057	2.1809380573928
1	8974	84.93837367645	0.51873542324839
1	9032	85.457109099698	4.2562295006163
1	9442	89.713338600314	2.6613907151037
1	9673	92.374729315418	1.4915755606017
1	9833	93.86630487602	2.6800873651306
1	10155	96.546392241151	1.0592689440103
1	10262	97.605661185161	1.596133193249
1	10393	99.20179437841	0.73132663280813
1	10490	99.933121011218	2.6816132223272
1	10727	102.614734233545	2.4755989317819
1	11045	105.090333165327	1.6253248248487
1	11226	106.715657990176	1.5244911051556
1	11411	108.240149095332	3.7080122697861
1	11836	111.948161365118	1.6125571628752
1	12010	113.560718527993	0.67421271309169
1	12060	114.234931241085	3.2744827305404
1	12400	117.509413971625	0.91975273849574
1	12477	118.429166710121	4.3060131247233
1	13022	122.735179834844	2.539525381062
1	13239	125.274705215906	0.98706975584618
1	13344	126.261774971752	1.0281055062099
1	13476	127.289880477962	0.25792209341627
1	13507	127.547802571378	3.5987675296872
1	13838	131.146570101065	1.6904486496614
1	14008	132.837018750726	1.3430653929682
1	14136	134.180084143694	0.59057206348266
1	14234	134.770656207177	0.35093728435455
1	14283	135.121593491532	0.6444388760137
1	14363	135.766032367546	2.4646199660636
1	14657	138.23065233361	1.0706333608331
1	14762	139.301285694443	2.7884189820312
1	15051	142.089704676474	0.093267571151881
1	15063	142.182972247626	3.9880622893572
1	15485	146.171034536983	2.2548669088395
1	15756	148.425901445822	2.4783940725755
1	16068	150.904295518397	1.3457395810346
1	16202	152.250035099432	0.11879681920531
1	16214	152.368831918637	5.7063725802004
1	16817	158.075204498837	9.2020890860913
1	17919	167.277293584928	6.4570899102223
1	18603	173.73438349515	0.90516127361575
1	18685	174.639544768766	3.1138891608018
1	19013	177.753433929568	4.4304566454761
1	19465	182.183890575044	0.16504580416456
1	19481	182.348936379209	2.8062481306112
1	19792	185.15518450982	1.1407107142318
1	19923	186.295895224052	1.1912522557486
1	20039	187.487147479801	4.2619734944395
1	20486	191.749120974241	0.53456212606551
1	20545	192.283683100307	0.023275230794871
1	20546	192.306958331102	3.8208343672015
1	20947	196.127792698303	2.6161879126992
1	21209	198.743980611002	0.33138759680901
1	21233	199.075368207811	0.61823189538027
1	21296	199.693600103191	2.2482919196607
1	21484	201.941892022852	0.56029212712237
1	21570	202.502184149974	2.2343373757017
1	21820	204.736521525676	3.5396295524428
1	22188	208.276151078119	0.74443908096548
1	22261	209.020590159084	0.79353324699514
1	22346	209.814123406079	0.56984143021548
1	22367	210.383964836294	0.13855658211092
1	22393	210.522521418405	2.7771729405023
1	22695	213.299694358907	1.9772666148752
1	23015	215.276960973782	3.1361416794268
1	23365	218.413102653209	1.3215119241716
1	23519	219.734614577381	1.7067729166847
1	23721	221.441387494066	2.197469555322
1	23931	223.638857049388	1.0692754556393
1	24082	224.708132505027	0.8270253226582
1	24153	225.535157827685	4.8845473464817
1	24682	230.419705174167	0.71253087237614
1	24772	231.132236046543	0.12411254366205
1	24786	231.256348590205	1.0389704985662
1	24925	232.295319088771	3.4271993291537
1	25315	235.722518417925	3.617454722091
1	25684	239.339973140016	1.1257108132391
1	25807	240.465683953255	0.38670376218745
1	25843	240.852387715442	3.0613720795888
1	26216	243.913759795031	0.27848364958525
1	26242	244.192243444616	1.2599938092617
1	26370	245.452237253878	1.3270023631836
1	26514	246.779239617062	1.5261677814716
1	26698	248.305407398534	4.554859416917
1	27202	252.860266815451	0.69278594355464
1	27280	253.553052759006	0.21943646240748
1	27311	253.772489221413	1.3101138030912
1	27401	255.082603024504	3.3740063803667
1	27720	258.456609404871	0.099297018905357
1	27731	258.555906423776	0.94709446757355
1	27838	259.50300089135	0.027974206818282
1	27840	259.530975098168	2.9703348189384
1	28157	262.501309917106	6.0815782380094
1	28744	268.582888155115	1.5276222507034
1	28923	270.110510405818	0.28246730314133
1	28959	270.392977708959	0.25958767614192
1	28991	270.652565385101	1.3281377067667
1	29106	271.980703091868	4.3142988203409
1	29608	276.295001912209	1.6764976729745
1	29806	277.971499585184	3.272871349171
1	30114	281.244370934355	0.17797864448559
1	30145	281.422349578841	0.66861617889723
1	30183	282.090965757738	1.1533783801407
1	30309	283.244344137879	4.258583688374
1	30838	287.502927826253	0.1327970848504
1	30854	287.635724911103	0.55840051318395
1	30931	288.194125424287	2.6419257600487
1	31309	290.836051184336	2.8822789305515
1	31570	293.718330114888	1.0260180690861
1	31681	294.744348183974	0.37369503267854
1	31740	295.118043216653	0.72579818158881
1	31841	295.843841398242	1.1408618601405
1	31978	296.984703258383	0.07336571777904
1	31984	297.058068976162	3.5124166183481
1	32343	300.57048559451	7.9146338595484
1	33124	308.485119454058	2.27096651608
1	33331	310.756085970138	0.62772485058578
1	33400	311.383810820724	1.5372335786281
1	33568	312.921044399352	2.0434067031512
1	33792	314.964451102503	1.0211862763917
1	33935	315.985637378895	3.3871567517014
1	34242	319.372794130596	6.6868586920185
1	34988	326.059652822614	2.534626795996
1	35247	328.59427961861	1.5519438311393
1	35377	330.146223449749	0.8309632245036
1	35478	330.977186674253	0.082504109287399
1	35489	331.05969078354	1.4075699614532
1	35633	332.467260744993	3.7781216740733
1	36052	336.245382419066	1.9839333643545
1	36291	338.22931578342	0.55079706055633
1	36317	338.780112843976	0.68532641320169
1	36378	339.465439257178	6.0492288608418
1	37089	345.51466811802	0.32503555786314
1	37105	345.839703675883	2.2373767419971
1	37311	348.07708041788	0.58259982314167
1	37328	348.659680241022	2.6585093110537
1	37628	351.318189552076	0.80185857577193
1	37720	352.120048127848	0.6832926033302
1	37791	352.803340731178	3.469251232126
1	38132	356.272591963304	3.662868308211
1	38496	359.935460271515	0.41345249954743
1	38543	360.348912771062	1.0002780050467
1	38657	361.349190776109	0.41838286091706
1	38710	361.767573637026	0.55087676254536
1	38760	362.318450399571	0.0032935512722531
1	38761	362.321743950843	1.5418061190637
1	38929	363.863550069907	5.6042291953335
1	39510	369.467779265241	0.85165057576196
1	39595	370.319429841003	1.0642786973506
1	39688	371.383708538354	6.5390697169145
1	40387	377.922778255268	1.307017103233
1	40554	379.229795358501	4.3471278833267
1	41093	383.576923241828	1.1276218443423
1	41228	384.70454508617	4.2688974084937
1	41721	388.973442494664	3.791315354703
1	42107	392.764757849367	0.87030926776632
1	42162	393.635067117133	1.2963965994889
1	42320	394.931463716622	3.2692903134296
1	42622	398.200754030052	3.1905405869206
2	1189	10.181223316914	2.6065938674455
2	1418	12.78781718436	2.0762097313089
2	1662	14.864026915669	1.2830374040242
2	1787	16.147064319693	4.5269550784271
2	2251	20.67401939812	0.53049859229107
2	2310	21.204517990411	0.26697370436602
2	2342	21.471491694777	3.5359307437682
2	2715	25.007422438545	0.414321965179
2	2763	25.421744403724	4.8539298680968
2	3236	30.275674271821	2.4474116345274
2	3481	32.723085906348	2.6402096032998
2	3756	35.363295509648	0.64113573217958
2	3821	36.004431241828	0.12867314536366
2	3837	36.133104387192	0.088811784796756
2	3838	36.221916171989	0.27891710871381
2	3859	36.500833280703	6.0579024248453
2	4469	42.558735705548	2.2117716835669
2	4687	44.770507389115	3.8766955240918
2	5189	48.647202913207	0.096770123830377
2	5210	48.743973037037	1.2441535326106
2	5382	49.988126569648	3.6146461036786
2	5706	53.602772673327	0.064361305922951
2	5712	53.66713397925	0.75846669557085
2	5784	54.425600674821	0.36513143936115
2	5825	54.790732114182	1.1726383592359
2	5970	55.963370473418	0.31040801821114
2	5998	56.273778491629	9.9683731731739
2	6959	66.242151664803	2.3714014167816
2	7217	68.613553081585	0.24543843694336
2	7256	68.858991518528	5.5011106062664
2	7812	74.360102124794	1.362348947948
2	7953	75.722451072742	3.4197103301698
2	8374	79.142161402912	0.47411298417454
2	8418	79.616274387087	5.7195653346209
2	9020	85.335839721708	2.0264588474108
2	9254	87.362298569119	1.741855216311
2	9409	89.10415378543	2.7057490537047
2	9611	91.809902839135	0.4303347404042
2	9662	92.240237579539	0.30671473749651
2	9700	92.546952317036	9.8873140101493
2	10711	102.434266327185	4.5430443740774
2	11257	106.977310701262	0.83240280447657
2	11354	107.809713505739	3.5352791938464
2	11769	111.344992699585	3.7444470327145
2	12151	115.0894397323	1.8193010800159
2	12335	116.908740812316	0.52956533858404
2	12388	117.4383061509	1.6758102990637
2	12568	119.114116449964	1.9107308464768
2	12839	121.024847296441	0.3200188633471
2	12865	121.344866159788	0.59988219438143
2	12938	121.944748354169	2.9025078951431
2	13198	124.847256249312	0.88515901022695
2	13288	125.732415259539	0.075244404307905
2	13290	125.807659663847	0.052001324439503
2	13295	125.859660988287	1.5186535863693
2	13480	127.378314574656	0.85131371903244
2	13574	128.229628293688	1.8642520768287
2	13731	130.093880370517	0.30912562151672
2	13780	130.403005992034	0.19837042067258
2	13784	130.601376412707	1.0655804839889
2	13883	131.666956896696	0.16884678276769
2	13896	131.835803679464	5.6966117150186
2	14585	137.532415394483	1.8511515637093
2	14773	139.383566958192	0.71157688978711
2	14832	140.095143847979	0.78481290921836
2	14907	140.879956757197	2.4037819632696
2	15160	143.283738720467	2.9986158104748
2	15491	146.282354530942	2.3486278860163
2	15792	148.630982416958	0.17767665320749
2	15820	148.808659070165	1.1539847736557
2	15946	149.962643843821	0.6675280958355
2	16033	150.630171939656	0.27252995123272
2	16067	150.902701890889	1.9429807346483
2	16259	152.845682625537	0.58377008463178
2	16313	153.429452710169	3.0871900758533
2	16621	156.516642786022	0.90999353185303
2	16716	157.426636317875	0.2416374840289
2	16768	157.668273801904	1.4692211218918
2	16911	159.137494923796	0.97391834702158
2	17055	160.111413270818	3.9457575416535
2	17503	164.057170812471	2.5005991113515
2	17835	166.557769923822	0.46986803306192
2	17896	167.027637956884	6.8762446515714
2	18635	173.903882608455	2.3800759208358
2	18854	176.283958529291	0.81389885535436
2	18940	177.097857384645	1.2119409542698
2	19082	178.309798338915	3.6913090986572
2	19442	182.001107437572	0.73236271601833
2	19527	182.73347015359	0.16261007781493
2	19555	182.896080231405	1.741080761784
2	19717	184.637160993189	2.9827114757448
2	20042	187.619872468934	1.8707546040408
2	20221	189.490627072975	1.6851234363559
2	20408	191.175750509331	0.178523819512
2	20429	191.354274328843	1.8189571424503
2	20633	193.173231471293	1.875896392726
2	20808	195.049127864019	1.1724937166492
2	20948	196.221621580668	0.85241730003635
2	21030	197.074038880704	0.056293431594742
2	21048	197.130332312299	0.15649294716849
2	21064	197.286825259467	4.8165639090243
2	21515	202.103389168491	0.4296535544897
2	21580	202.533042722981	4.8855210218955
2	22093	207.418563744877	2.2591382688452
2	22329	209.677702013722	0.48585076519453
2	22361	210.163552778917	4.2108331201382
2	22875	214.374385899055	1.8056144676522
2	23103	216.180000366707	0.62049020185093
2	23153	216.800490568558	7.7970990285481
2	24068	224.597589597106	0.63191517743629
2	24121	225.229504774542	6.4010421836912
2	24835	231.630546958233	1.7781645502195
2	25062	233.408711508453	1.1522736950707
2	25152	234.560985203524	0.76106196072023
2	25273	235.322047164244	1.8804122601778
2	25427	237.202459424422	1.2160484637401
2	25554	238.418507888162	1.7248692910183
2	25738	240.14337717918	0.34792301240404
2	25821	240.491300191584	0.1309138416511
2	25822	240.622214033235	2.0313011232215
2	26031	242.653515156457	8.8316169726401
2	27031	251.485132129097	0.95164869147565
2	27139	252.436780820573	3.4166711352919
2	27482	255.853451955865	3.0647211797252
2	27767	258.91817313559	2.3148028060789
2	28006	261.232975941669	0.38433706683339
2	28064	261.617313008502	0.45669999430919
2	28122	262.074013002811	1.6385025208396
2	28269	263.712515523651	0.99759477261932
2	28375	264.71011029627	0.58819952472622
2	28430	265.298309820996	0.71772889568299
2	28511	266.016038716679	5.6885651323531
2	29079	271.704603849032	2.0137062680373
2	29323	273.718310117069	0.22986431713886
2	29352	273.948174434208	1.0626392711109
2	29439	275.010813705319	0.84118963882556
2	29553	275.852003344145	0.2247960576653
2	29585	276.07679940181	0.33747540900741
2	29634	276.414274810817	5.8804751980313
2	30213	282.294750008848	2.662035442071
2	30532	284.956785450919	0.59132354528253
2	30575	285.548108996202	2.0707256503266
2	30853	287.618834646529	1.3229419157539
2	31053	288.941776562283	1.8030264004089
2	31282	290.744802962692	1.9578983399434
2	31440	292.702701302635	0.15608400926834
2	31471	292.858785311903	1.099160054412
2	31591	293.957945366315	1.1177728374967
2	31726	295.075718203812	9.5070999063855
2	32749	304.582818110198	1.5601935771125
2	32924	306.14301168731	1.4115907058058
2	33062	307.554602393116	1.9301454473846
2	33219	309.484747840501	8.9310006102374
2	34169	318.415748450738	0.88685781054689
2	34227	319.302606261285	7.1993022245811
2	35006	326.501908485866	3.283594479112
2	35352	329.785502964978	4.5177819991047
2	35834	334.303284964083	0.97415040524482
2	35935	335.277435369328	4.2346003324643
2	36385	339.512035701792	5.8995955995167
2	37072	345.411631301309	2.4319395555876
2	37279	347.843570856897	1.2853616731085
2	37368	349.128932530005	1.3707069445264
2	37540	350.499639474531	2.7471029683555
2	37842	353.246742442887	4.1689354065149
2	38280	357.415677849402	1.8329337924571
2	38420	359.248611641859	1.3534783049338
2	38581	360.602089946793	8.7758650716406
2	39495	369.377955018434	1.3665618189456
2	39638	370.74451683738	2.3486752346187
2	39871	373.093192071999	4.4270651652978
2	40348	377.520257237297	0.61926931259684
2	40438	378.139526549894	0.66147351200254
2	40526	378.801000061897	2.3249581352219
2	40793	381.125958197119	1.8450497490419
2	40986	382.971007946161	7.2600167861493
2	41824	390.23102473231	0.40119142732821
2	41872	390.632216159638	3.2758687402076
2	42196	393.908084899846	0.82529041098243
2	42310	394.733375310828	1.08037656318
2	42417	395.813751874008	4.1435138975311
2	42846	399.957265771539	4.2027958524187
3	1190	10.184101198312	0.092876971864
3	1195	10.276978170176	0.054706370102
3	1200	10.331684540278	0.011179138446
3	1205	10.342863678724	0.025283330048
3	1210	10.368147008772	0.083721440858
3	1215	10.45186844963	0.005684209294
3	1217	10.457552658924	0.014996265152
3	1225	10.472548924076	0.042995506296
3	1230	10.515544430372	0.032178167714
3	1236	10.547722598086	0.05913201278
3	1241	10.606854610866	0.002471800584
3	1243	10.60932641145	0.094478266082
3	1252	10.703804677532	0.038237832532
3	1257	10.742042510064	0.012384746743
3	1262	10.754427256807	0.011336248302
3	1267	10.765763505109	0.018367421129
3	1272	10.784130926238	0.010294760111
3	1277	10.794425686349	0.043799484623
3	1282	10.838225170972	0.065875531664
3	1287	10.904100702636	0.048985538029
3	1292	10.953086240665	0.090068786319
3	1297	11.043155026984	0.02348290871
3	1302	11.066637935694	0.082799302729
3	1308	11.149437238423	0.155309679135
3	1314	11.304746917558	0.19164615831
3	1319	11.496393075868	0.132703305047
3	1326	11.629096380915	0.141752500542
3	1331	11.770848881457	0.044853470619
3	1337	11.815702352076	0.048009854838
3	1342	11.863712206914	0.018072909315
3	1347	11.881785116229	0.057861118398
3	1352	11.939646234627	0.002196879191
3	1354	11.941843113818	0.054779180899
3	1362	11.996622294717	0.087182923473
3	1369	12.08380521819	0.019614398655
3	1374	12.103419616845	0.063999891996
3	1379	12.167419508841	0.012901099288
3	1384	12.180320608129	0.065230518121
3	1389	12.24555112625	0.018646073072
3	1394	12.264197199322	0.162951991477
3	1400	12.427149190799	0.131719488339
3	1407	12.558868679138	0.14684883322
3	1413	12.705717512358	0.145645280082
3	1419	12.85136279244	0.020405504053
3	1424	12.871768296493	0.020972526031
3	1429	12.892740822524	0.017981754265
3	1434	12.910722576789	0.033126192162
3	1439	12.943848768951	0.060157338447
3	1444	13.004006107398	0.000502598554
3	1446	13.004508705952	0.111516269289
3	1454	13.116024975241	0.10752839159
3	1460	13.223553366831	0.013935674851
3	1465	13.237489041682	0.066725845607
3	1470	13.304214887289	0.041917036577
3	1475	13.346131923866	0.030564710908
3	1480	13.376696634774	0.001332474639
3	1482	13.378029109413	0.023751635242
3	1490	13.401780744655	0.03987523479
3	1495	13.441655979445	0.01963509262
3	1501	13.461291072065	0.117561889186
3	1507	13.578852961251	0.016161261652
3	1512	13.595014222903	0.016536957717
3	1517	13.61155118062	0.028636541037
3	1523	13.640187721657	0.046451327692
3	1528	13.686639049349	0.017764527703
3	1533	13.704403577052	0.028487058896
3	1538	13.732890635948	0.01311286791
3	1543	13.746003503858	0.147538849254
3	1549	13.893542353112	0.171233801887
3	1554	14.064776154999	0.010969411554
3	1559	14.075745566553	0.000913128058
3	1561	14.076658694611	0.042372127059
3	1569	14.11903082167	0.008845251994
3	1574	14.127876073664	0.029143482593
3	1579	14.157019556257	0.052445507338
3	1584	14.209465063595	0.004239506695
3	1586	14.21370457029	0.042356399276
3	1594	14.256060969566	0.10687468897
3	1599	14.362935658536	0.01835156507
3	1605	14.381287223606	0.009764710685
3	1610	14.391051934291	0.00514971761
3	1612	14.396201651901	0.113234368475
3	1620	14.509436020376	0.008373718462
3	1625	14.517809738838	0.01262121347
3	1630	14.530430952308	0.019337885248
3	1635	14.549768837556	0.021535271767
3	1641	14.571304109323	0.155849504881
3	1647	14.727153614204	0.025591670509
3	1652	14.752745284713	0.050755925836
3	1657	14.803501210549	0.218534205454
3	1663	15.022035416003	0.054223916497
3	1669	15.0762593325	0.005224289551
3	1671	15.081483622051	0.028727073289
3	1679	15.11021069534	0.068065973594
3	1686	15.178276668934	0.01113376523
3	1691	15.189410434164	0.172385905841
3	1698	15.361796340005	0.069236082096
3	1703	15.431032422101	0.095798765054
3	1709	15.526831187155	0.046189355388
3	1714	15.573020542543	0.0501711657
3	1719	15.623191708243	0.092341683261
3	1724	15.715533391504	0.034415339531
3	1729	15.749948731035	0.033317758608
3	1734	15.783266489643	0.004948841565
3	1736	15.788215331208	0.001155841706
3	1738	15.789371172914	0.006894565527
3	1743	15.796265738441	0.028328448366
3	1754	15.824594186807	0.000438788743
3	1756	15.82503297555	0.167450088833
3	1766	15.992483064383	0.003114952554
3	1769	15.995598016937	0.033315643748
3	1777	16.028913660685	0.061509630587
3	1782	16.090423291272	0.140107927529
3	1791	16.230531218801	0.04843317403
3	1797	16.278964392831	0.014644491968
3	1802	16.293608884799	0.142548990733
3	1807	16.436157875532	0.06173531048
3	1814	16.497893186012	0.132019312072
3	1820	16.629912498084	0.000365891237
3	1822	16.630278389321	0.021688464573
3	1830	16.651966853894	0.060858191619
3	1835	16.712825045513	0.021672177658
3	1840	16.734497223171	0.11786994653
3	1845	16.852367169701	0.017988022542
3	1850	16.870355192243	0.060192306568
3	1856	16.930547498811	0.045009971257
3	1861	16.975557470068	0.075166901865
3	1867	17.050724371933	0.01975342241
3	1872	17.070477794343	0.019024477868
3	1877	17.089502272211	0.009612965023
3	1882	17.099115237234	0.009941062781
3	1887	17.109056300015	0.004887692531
3	1890	17.113943992546	0.04759952147
3	1899	17.161543514016	0.132675419117
3	1904	17.294218933133	0.076435548982
3	1910	17.370654482115	0.003426822328
3	1912	17.374081304443	0.114872409625
3	1921	17.488953714068	0.080981352108
3	1926	17.569935066176	0.06076997758
3	1932	17.630705043756	0.014038832849
3	1937	17.644743876605	0.120242900788
3	1944	17.764986777393	0.058643359151
3	1949	17.823630136544	0.103764867828
3	1955	17.927395004372	0.012890158192
3	1960	17.940285162564	0.128469260203
3	1967	18.068754422767	0.02669156517
3	1972	18.095445987937	0.047634706552
3	1978	18.143080694489	0.056904847719
3	1983	18.199985542208	0.016085200604
3	1988	18.216070742812	0.087300160035
3	1994	18.303370902847	0.008256651207
3	1999	18.311627554054	0.003243524185
3	2001	18.314871078239	0.048796030358
3	2009	18.363667108597	0.004087339397
3	2011	18.367754447994	0.000851686996
3	2013	18.36860613499	0.002097466075
3	2015	18.370703601065	0.011493990776
3	2023	18.382197591841	0.013692658451
3	2031	18.395890250292	0.055471101504
3	2040	18.451361351796	0.027552458692
3	2045	18.478913810488	0.074516539847
3	2051	18.553430350335	0.13054723838
3	2058	18.683977588715	0.036357278593
3	2063	18.720334867308	0.02823736231
3	2068	18.748572229618	0.001299008194
3	2070	18.749871237812	0.064929833812
3	2080	18.814801071624	0.008460780573
3	2085	18.823261852197	0.062759423242
3	2092	18.886021275439	0.056518040793
3	2097	18.942539316232	0.061216415229
3	2102	19.003755731461	0.135166145706
3	2107	19.138921877167	0.001080647075
3	2109	19.140002524242	0.044527084793
3	2118	19.184529609035	0.011784489126
3	2123	19.196314098161	0.189150802121
3	2129	19.385464900282	0.007634251059
3	2134	19.393099151341	0.170934328452
3	2141	19.564033479793	0.124508195515
3	2147	19.688541675308	0.085584116414
3	2152	19.774125791722	0.099673268068
3	2158	19.87379905979	0.003134086401
3	2160	19.876933146191	0.073284813246
3	2168	19.950217959437	0.020390857532
3	2173	19.970608816969	0.003912854297
3	2175	19.974521671266	0.017864302585
3	2183	19.992385973851	0.167143856497
3	2191	20.159529830348	0.016158156684
3	2196	20.175687987032	0.003142936482
3	2198	20.178830923514	0.018656588822
3	2206	20.197487512336	0.094154622574
3	2213	20.29164213491	0.039320007317
3	2218	20.330962142227	0.110813611826
3	2224	20.441775754053	0.043218867472
3	2229	20.484994621525	0.056009231744
3	2234	20.541003853269	0.020763696649
3	2239	20.561767549918	0.064257144147
3	2245	20.626024694065	0.075171355846
3	2252	20.701196049911	0.209275503036
3	2262	20.910471552947	0.004941788281
3	2264	20.915413341228	0.067352741993
3	2274	20.982766083221	0.045041308673
3	2279	21.027807391894	0.00789473411
3	2284	21.035702126004	0.004011403572
3	2286	21.039713529576	0.030629466494
3	2294	21.07034299607	0.023309872081
3	2299	21.093652868151	0.066879675481
3	2304	21.160532543632	0.064812866644
3	2311	21.225345410276	0.071683231558
3	2316	21.297028641834	0.052253210669
3	2321	21.349281852503	0.016286959151
3	2326	21.365568811654	0.054019560161
3	2332	21.419588371815	0.01175129392
3	2337	21.431339665735	0.166884879937
3	2343	21.598224545672	0.279773209531
3	2351	21.877997755203	0.006422416005
3	2353	21.884420171208	0.03176864446
3	2361	21.916188815668	0.030327213872
3	2366	21.94651602954	0.074614977294
3	2373	22.021131006834	0.084526659736
3	2380	22.10565766657	0.039343751372
3	2386	22.145001417942	0.111122264524
3	2391	22.256123682466	0.124536988293
3	2397	22.380660670759	0.024289827836
3	2402	22.404950498595	0.032560514284
3	2407	22.437511012879	0.022656936058
3	2412	22.460167948937	0.031359682981
3	2417	22.491527631918	0.008310749483
3	2422	22.499838381401	0.074407034246
3	2427	22.574245415647	0.017555605208
3	2432	22.591801020855	0.021294794116
3	2437	22.613095814971	0.017275245309
3	2442	22.63037106028	0.035654305874
3	2447	22.666025366154	0.042784565319
3	2453	22.708809931473	0.02845377218
3	2458	22.737263703653	0.05768522214
3	2463	22.794948925793	0.028820524022
3	2468	22.823769449815	0.03809926911
3	2473	22.861868718925	0.021943492742
3	2478	22.883812211667	0.024673783965
3	2483	22.908485995632	0.001727322616
3	2485	22.910213318248	0.007693109232
3	2490	22.91790642748	0.078848102594
3	2498	22.996754530074	0.027528762311
3	2503	23.024283292385	0.075041844065
3	2508	23.09932513645	0.017805371901
3	2513	23.117130508351	0.059600581082
3	2518	23.176731089433	0.023280450171
3	2523	23.200011539604	0.098430919445
3	2528	23.298442459049	0.000554288139
3	2530	23.298996747188	0.002066545897
3	2532	23.301063293085	0.039563927551
3	2543	23.340627220636	0.014517829336
3	2549	23.355145049972	0.008374069142
3	2555	23.363519119114	0.007828041391
3	2560	23.371347160505	0.004545227942
3	2562	23.375892388447	0.067764498535
3	2570	23.443656886982	0.028932828527
3	2575	23.472589715509	0.044639508422
3	2580	23.517229223931	0.011641347575
3	2586	23.528870571506	0.0554431855
3	2591	23.584313757006	0.041543199459
3	2596	23.625856956465	0.169522534061
3	2601	23.795379490526	0.02600971823
3	2606	23.821389208756	0.000207342755
3	2608	23.821596551511	0.150152838867
3	2618	23.971749390378	0.009015614582
3	2623	23.98076500496	0.130704663603
3	2628	24.111469668563	0.083013220917
3	2634	24.19448288948	0.067713806532
3	2639	24.262196696012	0.073732151195
3	2644	24.335928847207	0.063610050818
3	2651	24.399538898025	0.042672207708
3	2656	24.442211105733	0.012467718334
3	2661	24.454678824067	0.107197615067
3	2669	24.561876439134	0.086946867737
3	2674	24.648823306871	0.003572577772
3	2676	24.652395884643	0.200601527483
3	2685	24.852997412126	0.001122570924
3	2687	24.85411998305	0.03527382135
3	2695	24.8893938044	0.006010424262
3	2697	24.895404228662	0.064220754312
3	2705	24.959624982974	0.038171133827
3	2710	24.997796116801	0.015196267937
3	2716	25.012992384738	0.03933165827
3	2721	25.052324043008	0.020057087501
3	2726	25.072381130509	0.021067779768
3	2731	25.093448910277	0.089482111088
3	2737	25.182931021365	0.105569518313
3	2744	25.288500539678	0.000681950318
3	2746	25.289182489996	0.025383432235
3	2754	25.314565922231	0.100658131237
3	2759	25.415224053468	0.004433887021
3	2761	25.419657940489	0.009891807278
3	2767	25.429549747767	0.090584673359
3	2775	25.520134421126	0.055168470564
3	2780	25.57530289169	0.055176808316
3	2785	25.630479700006	0.032404304725
3	2790	25.662884004731	0.171467557612
3	2795	25.834351562343	0.000811643259
3	2797	25.835163205602	0.047033806024
3	2805	25.882197011626	0.047534926579
3	2810	25.929731938205	0.012494310185
3	2816	25.94222624839	0.041554522487
3	2821	25.983780770877	0.00739056929
3	2823	25.991171340167	0.029942236893
3	2831	26.02111357706	0.084780560451
3	2836	26.105894137511	0.023158287838
3	2841	26.129052425349	0.011115649954
3	2846	26.140168075303	0.045200420923
3	2851	26.185368496226	0.015891916839
3	2856	26.201260413065	0.041190220044
3	2862	26.242450633109	0.043784927561
3	2867	26.28623556067	0.070596294072
3	2872	26.356831854742	0.007929867657
3	2874	26.364761722399	0.052428524493
3	2883	26.417190246892	0.047129762271
3	2890	26.464320009163	0.000559118798
3	2892	26.464879127961	0.007698494288
3	2894	26.472577622249	0.012553192804
3	2902	26.485130815053	0.039072458934
3	2911	26.524203273987	0.040967403761
3	2916	26.565170677748	0.148179605215
3	2921	26.713350282963	0.018032336879
3	2926	26.731382619842	0.284981727453
3	2933	27.016364347295	0.019663344577
3	2938	27.036027691872	0.020793865554
3	2943	27.056821557426	0.142705942906
3	2948	27.199527500332	0.042385667384
3	2954	27.241913167716	0.028870726445
3	2959	27.270783894161	0.053096519791
3	2964	27.323880413952	0.109098719854
3	2970	27.432979133806	0.028007646973
3	2975	27.460986780779	0.110688819457
3	2980	27.571675600236	0.101973145811
3	2985	27.673648746047	0.190047804304
3	2992	27.863696550351	0.051747776779
3	2997	27.91544432713	0.001141693006
3	2999	27.916586020136	0.007248850387
3	3001	27.923834870523	0.000986164226
3	3006	27.924821034749	0.003333678507
3	3008	27.928154713256	0.08393147265
3	3022	28.012086185906	0.047078422613
3	3027	28.059164608519	0.035045815205
3	3033	28.094210423724	0.152088931622
3	3038	28.246299355346	0.084078080329
3	3045	28.330377435675	0.02064075485
3	3050	28.351018190525	0.028534888101
3	3055	28.379553078626	0.029069176206
3	3060	28.408622254832	0.034899167337
3	3066	28.443521422169	0.09841841273
3	3072	28.541939834899	0.004528344401
3	3074	28.5464681793	0.030179114878
3	3083	28.576647294178	0.024601357068
3	3088	28.601248651246	0.033761390788
3	3093	28.635010042034	0.020497861213
3	3098	28.655507903247	0.050536473812
3	3103	28.706044377059	0.028963247255
3	3109	28.735007624314	0.141788025474
3	3115	28.876795649788	0.00075967736
3	3117	28.877555327148	0.008689577317
3	3122	28.886244904465	0.004328553531
3	3124	28.890573457996	0.04318696606
3	3136	28.933760424056	0.028810650682
3	3141	28.962571074738	0.13066414252
3	3146	29.093235217258	0.404793921951
3	3154	29.498029139209	0.063816729555
3	3160	29.561845868764	0.075845284484
3	3167	29.637691153248	0.131261754868
3	3172	29.768952908116	0.060211566813
3	3177	29.829164474929	0.019035890714
3	3182	29.848200365643	0.016016215318
3	3187	29.864216580961	0.066700927734
3	3193	29.930917508695	0.005227505129
3	3195	29.936145013824	0.091137027098
3	3203	30.027282040922	0.098723836889
3	3209	30.126005877811	0.042736040871
3	3215	30.168741918682	0.037830106483
3	3220	30.206572025165	0.008025657226
3	3223	30.214597682391	0.003915197371
3	3228	30.218512879762	0.089503088658
3	3237	30.30801596842	0.077922979131
3	3242	30.385938947551	0.089757499581
3	3247	30.475696447132	0.012270215037
3	3252	30.487966662169	0.011398829777
3	3257	30.499365491946	0.028736629448
3	3262	30.528102121394	0.017928242712
3	3267	30.546030364106	0.172063803018
3	3273	30.718094167124	0.111800101362
3	3279	30.829894268486	0.0752933008
3	3285	30.905187569286	0.023309485382
3	3290	30.928497054668	0.125787219829
3	3295	31.054284274497	0.051906978636
3	3300	31.106191253133	0.027977610021
3	3305	31.134168863154	0.01394533227
3	3310	31.148114195424	0.010727164771
3	3316	31.158841360195	0.025949905943
3	3322	31.184791266138	0.085208881537
3	3327	31.270000147675	0.162777707778
3	3333	31.432777855453	0.014041172349
3	3338	31.446819027802	0.005919018043
3	3340	31.452738045845	0.0021261446
3	3342	31.454864190445	0.006032563138
3	3347	31.460896753583	0.12882685419
3	3358	31.589723607773	0.027620385038
3	3363	31.617343992811	0.079868397977
3	3369	31.697212390788	0.005200992364
3	3371	31.702413383152	0.00103655394
3	3373	31.703449937092	0.006329054136
3	3378	31.709778991228	0.001707229357
3	3380	31.711486220585	0.006194733116
3	3385	31.717680953701	0.039501787675
3	3399	31.757182741376	0.128362127797
3	3405	31.885544869173	0.052484574175
3	3410	31.938029443348	0.028706298419
3	3415	31.966735741767	0.052287300003
3	3420	32.01902304177	0.022873991274
3	3425	32.041897033044	0.004810015675
3	3427	32.046707048719	0.012572928651
3	3435	32.05927997737	0.048639795443
3	3440	32.107919772813	0.143712121715
3	3445	32.251631894528	0.028956293882
3	3450	32.28058818841	0.288586121792
3	3461	32.569174310202	0.00860611191
3	3466	32.577780422112	0.048085850701
3	3471	32.625866272813	0.08408443054
3	3476	32.709950703353	0.0239851578
3	3482	32.733935861153	0.025221456092
3	3488	32.759157317245	0.008146085047
3	3490	32.767303402292	0.003485788662
3	3495	32.770789190954	0.023411267795
3	3503	32.794200458749	0.022353009396
3	3508	32.816553468145	0.033817154905
3	3513	32.85037062305	0.015438277601
3	3518	32.865808900651	0.065193121212
3	3523	32.931002021863	0.042507749481
3	3528	32.973509771344	0.043711177421
3	3533	33.017220948765	0.040882213769
3	3538	33.058103162534	0.008745277785
3	3543	33.066848440319	0.130879627734
3	3549	33.197728068053	0.030838458272
3	3554	33.228566526325	0.054089584148
3	3560	33.282656110473	0.032977089623
3	3566	33.315633200096	0.027698259821
3	3571	33.343331459917	0.072313369745
3	3576	33.415644829662	0.059990822597
3	3582	33.475635652259	0.034406439299
3	3587	33.510042091558	0.10242520329
3	3592	33.612467294848	0.029819552111
3	3597	33.642286846959	0.010846352252
3	3602	33.653133199211	0.033653445212
3	3607	33.686786644423	0.004500823364
3	3609	33.691287467787	0.028463719821
3	3617	33.719751187608	0.011405402005
3	3622	33.731156589613	0.078092292201
3	3629	33.809248881814	0.144548518826
3	3635	33.95379740064	0.033975622665
3	3640	33.987773023305	0.086023318654
3	3645	34.073796341959	0.050384076181
3	3650	34.12418041814	0.072058284723
3	3655	34.196238702863	0.065103690263
3	3660	34.261342393126	0.147055652783
3	3666	34.408398045909	0.041065922856
3	3671	34.449463968765	0.056293722768
3	3677	34.505757691533	0.006463965806
3	3679	34.512221657339	0.038764299344
3	3687	34.550985956683	0.022690330713
3	3692	34.573676287396	0.015974061224
3	3697	34.58965034862	0.070265223742
3	3702	34.659915572362	0.059415539704
3	3707	34.719331112066	0.043205624619
3	3712	34.762536736685	0.213279513615
3	3719	34.9758162503	0.023448481836
3	3724	34.999264732136	0.050069179418
3	3729	35.049333911554	0.022922336805
3	3735	35.072256248359	0.00124867034
3	3737	35.073504918699	0.011941170328
3	3742	35.085446089027	0.082737908799
3	3750	35.168183997826	0.318314904135
3	3759	35.486498901961	0.017679891285
3	3764	35.504178793246	0.003467861828
3	3766	35.507646655074	0.038835221382
3	3775	35.546481876456	0.015097695066
3	3780	35.561579571522	0.004608864329
3	3782	35.566188435851	0.138341907215
3	3790	35.704530343066	0.028498194416
3	3795	35.733028537482	0.077323049362
3	3800	35.810351586844	0.065976047334
3	3806	35.876327634178	0.058787077839
3	3811	35.935114712017	0.04815723899
3	3816	35.983271951007	0.093717683886
3	3822	36.076989634893	0.016446805015
3	3827	36.093436439908	0.012640627938
3	3832	36.106077067846	0.223423054771
3	3839	36.329500122617	0.00430593553
3	3841	36.333806058147	0.000491657658
3	3843	36.334297715805	0.132561479715
3	3854	36.46685919552	0.083962053394
3	3860	36.550821248914	0.02647857225
3	3865	36.577299821164	0.005446031038
3	3867	36.582745852202	0.038124479367
3	3875	36.620870331569	0.273652288622
3	3882	36.894522620191	0.003022948233
3	3884	36.897545568424	0.128926094367
3	3892	37.026471662791	0.179352503345
3	3898	37.205824166136	0.005256816598
3	3900	37.211080982734	0.03124733349
3	3908	37.242328316224	0.006152274025
3	3910	37.248480590249	0.059782368688
3	3919	37.308262958937	0.088716664232
3	3924	37.396979623169	0.000159440802
3	3926	37.397139063971	0.044161383663
3	3934	37.441300447634	0.005390681881
3	3936	37.446691129515	0.002379882966
3	3941	37.449071012481	0.005211552089
3	3943	37.45428256457	0.018762480792
3	3954	37.473045045362	0.010703547374
3	3959	37.483748592736	0.069990655309
3	3965	37.553739248045	0.021009945977
3	3971	37.574749194022	0.030556073184
3	3976	37.605305267206	0.006376729304
3	3978	37.61168199651	0.042101598375
3	3987	37.653783594885	0.050496718525
3	3992	37.70428031341	0.003602181632
3	3994	37.707882495042	0.126558371327
3	4002	37.834440866369	0.065744469123
3	4007	37.900185335492	0.040690433962
3	4012	37.940875769454	0.072149173223
3	4018	38.013024942677	0.074683131308
3	4023	38.087708073985	0.01010081629
3	4028	38.097808890275	0.016171960221
3	4033	38.113980850496	0.019539397774
3	4038	38.13352024827	0.031500267184
3	4044	38.165020515454	0.1137740424
3	4049	38.278794557854	0.01516795806
3	4054	38.293962515914	0.037879570654
3	4060	38.331842086568	0.062114845882
3	4065	38.39395693245	0.093701312768
3	4072	38.487658245218	0.036302972927
3	4078	38.523961218145	0.068103798915
3	4085	38.59206501706	0.024343565569
3	4090	38.616408582629	0.081173134562
3	4095	38.697581717191	0.069397344637
3	4100	38.766979061828	0.120601584037
3	4105	38.887580645865	0.073994019408
3	4111	38.961574665273	0.106189776088
3	4117	39.067764441361	0.012415688358
3	4122	39.080180129719	0.01797503432
3	4127	39.098155164039	0.018045324899
3	4132	39.116200488938	0.02957005417
3	4137	39.145770543108	0.206767269141
3	4142	39.352537812249	0.058593784516
3	4148	39.411131596765	0.07324760645
3	4154	39.484379203215	0.084488284733
3	4159	39.568867487948	0.015187353063
3	4164	39.584054841011	0.030876606492
3	4169	39.614931447503	0.000353685036
3	4171	39.615285132539	0.053679989618
3	4179	39.668965122157	0.102793346669
3	4185	39.771758468826	0.016470384058
3	4190	39.788228852884	0.017266986385
3	4195	39.805495839269	0.183325771078
3	4201	39.988821610347	0.052178855585
3	4206	40.041000465932	0.06610831023
3	4211	40.107108776162	0.029867671359
3	4216	40.136976447521	0.010449542821
3	4221	40.147425990342	0.053582935817
3	4227	40.201008926159	0.114969007304
3	4232	40.315977933463	0.006116568589
3	4234	40.322094502052	0.014612765603
3	4242	40.336707267655	0.00729902037
3	4244	40.344006288025	0.079035811503
3	4252	40.423042099528	0.099140042043
3	4258	40.522182141571	0.003053566362
3	4260	40.525235707933	0.038653373999
3	4269	40.563889081932	0.003316925768
3	4271	40.5672060077	0.021832195507
3	4279	40.589038203207	0.003763079504
3	4281	40.592801282711	0.076587765891
3	4289	40.669389048602	0.178991123526
3	4295	40.848380172128	0.117159047169
3	4300	40.965539219297	0.03789036329
3	4305	41.003429582587	0.014965260267
3	4310	41.018394842854	0.077562374321
3	4315	41.095957217175	0.131907227946
3	4321	41.227864445121	0.035815745523
3	4326	41.263680190644	0.052118561403
3	4331	41.315798752047	0.055918420436
3	4336	41.371717172483	0.020611239016
3	4342	41.392328411499	0.019771819473
3	4347	41.412100230972	0.028838432957
3	4352	41.440938663929	0.10462445297
3	4358	41.545563116899	0.04810873201
3	4365	41.593671848909	0.038851564674
3	4370	41.632523413583	0.018690982312
3	4375	41.651214395895	0.006423634221
3	4377	41.657638030116	0.010576357537
3	4385	41.668214387653	0.02590346995
3	4390	41.694117857603	0.013076594954
3	4395	41.707194452557	0.04606349578
3	4400	41.753257948337	0.009826195073
3	4405	41.76308414341	0.059202080764
3	4410	41.822286224174	0.017654425786
3	4415	41.83994064996	0.110499531661
3	4420	41.950440181621	0.023485418696
3	4425	41.973925600317	0.043993515096
3	4430	42.017919115413	0.018543634087
3	4435	42.0364627495	0.123263033087
3	4440	42.159725782587	0.006186732385
3	4442	42.165912514972	0.104584662638
3	4453	42.27049717761	0.005826972034
3	4455	42.276324149644	0.048934596316
3	4463	42.32525874596	0.237036462765
3	4470	42.562295208725	0.116244861799
3	4476	42.678540070524	0.043276616823
3	4481	42.721816687347	0.173170948867
3	4486	42.894987636214	0.013975896622
3	4491	42.908963532836	0.014359247013
3	4497	42.923322779849	0.010596977128
3	4502	42.933919756977	0.010594272281
3	4507	42.944514029258	0.019819277301
3	4512	42.964333306559	0.02195018352
3	4517	42.986283490079	0.086038628429
3	4523	43.072322118508	0.020774379279
3	4528	43.093096497787	0.079252512936
3	4533	43.172349010723	0.124877520215
3	4539	43.297226530938	0.071199944562
3	4545	43.3684264755	0.074391747694
3	4552	43.442818223194	0.010548212463
3	4557	43.453366435657	0.003398523093
3	4560	43.45676495875	0.012785426297
3	4568	43.469550385047	0.079272243258
3	4573	43.548822628305	0.013189532724
3	4578	43.562012161029	0.105847288497
3	4584	43.667859449526	0.105389545353
3	4590	43.773248994879	0.020829709624
3	4595	43.794078704503	0.002956607206
3	4597	43.797035311709	0.017176671883
3	4605	43.814211983592	0.055977626343
3	4610	43.870189609935	0.026911000377
3	4615	43.897100610312	0.000337737241
3	4617	43.897438347553	0.085614788797
3	4626	43.98305313635	0.080824411642
3	4633	44.063877547992	0.01718208935
3	4638	44.081059637342	0.095450400162
3	4644	44.176510037504	0.159761834236
3	4650	44.33627187174	0.171078305433
3	4655	44.507350177173	0.07818191065
3	4661	44.585532087823	0.050788862385
3	4666	44.636320950208	0.006992662453
3	4669	44.643313612661	0.039982302357
3	4679	44.683295915018	0.081212474599
3	4685	44.764508389617	0.03883522814
3	4692	44.803343617757	0.039893090022
3	4698	44.843236707779	0.012692919316
3	4703	44.855929627095	0.046726740852
3	4708	44.902656367947	0.071679914592
3	4713	44.974336282539	0.006731575396
3	4715	44.981067857935	0.014653880916
3	4723	44.995721738851	0.012877073059
3	4728	45.00859881191	0.048273831544
3	4733	45.056872643454	0.007292430563
3	4735	45.064165074017	0.131047212752
3	4743	45.195212286769	0.117895860308
3	4748	45.313108147077	0.005820647685
3	4750	45.318928794762	0.019981161375
3	4758	45.338909956137	0.02700337919
3	4763	45.365913335327	0.010138033058
3	4768	45.376051368385	0.102811480761
3	4773	45.478862849146	0.134923220488
3	4779	45.613786069634	0.026601410402
3	4784	45.640387480036	0.028609230559
3	4789	45.668996710595	0.019326945741
3	4794	45.688323656336	0.063690618548
3	4799	45.752014274884	0.008200342327
3	4801	45.760214617211	0.038349209892
3	4810	45.798563827103	0.002432617683
3	4812	45.800996444786	0.053447043176
3	4820	45.854443487962	0.0199055208
3	4825	45.874349008762	0.041396001479
3	4830	45.915745010241	0.005924451838
3	4832	45.921669462079	0.06465081952
3	4840	45.986320281599	0.000296814622
3	4842	45.986617096221	0.000683876332
3	4844	45.987300972553	0.00738005719
3	4849	45.994681029743	0.010626507153
3	4854	46.005307536896	0.022640732772
3	4865	46.027948269668	0.097575961574
3	4871	46.125524231242	0.004958816557
3	4873	46.130483047799	0.035111441645
3	4881	46.165594489444	0.027751217261
3	4886	46.193345706705	0.084040710337
3	4891	46.277386417042	0.046641611801
3	4898	46.324028028843	0.079473132314
3	4904	46.403501161157	0.037048516592
3	4909	46.440549677749	0.053842021588
3	4915	46.494391699337	0.011074991667
3	4920	46.505466691004	0.023192164534
3	4926	46.528658855538	0.014976913347
3	4931	46.543635768885	0.073378378117
3	4937	46.617014147002	0.026770437268
3	4942	46.64378458427	0.069722872869
3	4947	46.713507457139	0.087286180464
3	4952	46.800793637603	0.0960311431
3	4957	46.896824780703	0.082144457023
3	4962	46.978969237726	0.005719149561
3	4964	46.984688387287	0.030213654343
3	4972	47.01490204163	0.062170596134
3	4978	47.077072637764	0.014750421753
3	4983	47.091823059517	0.046177809569
3	4988	47.138000869086	0.020717835452
3	4994	47.158718704538	0.004248692843
3	4996	47.162967397381	0.105474470563
3	5005	47.268441867944	0.037842333792
3	5011	47.306284201736	0.007789547603
3	5013	47.314073749339	0.036115033642
3	5022	47.350188782981	0.010296871274
3	5027	47.360485654255	0.031526765185
3	5033	47.39201241944	0.042839658098
3	5040	47.434852077538	0.002648954789
3	5042	47.437501032327	0.031911578214
3	5050	47.469412610541	0.068611749728
3	5055	47.538024360269	0.014555069837
3	5060	47.552579430106	0.018932106607
3	5065	47.571511536713	0.035548002326
3	5070	47.607059539039	0.119126681393
3	5076	47.726186220432	0.049755718198
3	5081	47.77594193863	0.010577863319
3	5086	47.786519801949	0.029219382039
3	5091	47.815739183988	0.064554777559
3	5097	47.880293961547	0.014632936065
3	5102	47.894926897612	0.030105201997
3	5107	47.925032099609	0.075717274931
3	5112	48.00074937454	0.02211860487
3	5117	48.02286797941	0.085681023973
3	5122	48.108549003383	0.110089356612
3	5127	48.218638359995	0.054784627581
3	5132	48.273422987576	0.088690555106
3	5138	48.362113542682	0.008243238756
3	5143	48.370356781438	0.035827857704
3	5148	48.406184639142	0.002197542595
3	5150	48.408382181737	0.018941612948
3	5158	48.427323794685	0.018441291524
3	5163	48.445765086209	0.069584679298
3	5169	48.515349765507	0.049185399619
3	5174	48.564535165126	0.031990392088
3	5179	48.596525557214	0.035582982595
3	5184	48.632108539809	0.021389377795
3	5190	48.653497917604	0.006589639001
3	5192	48.660087556605	0.001336100231
3	5197	48.661423656836	0.037931446622
3	5205	48.699355103458	0.088593511177
3	5211	48.787948614635	0.046351115386
3	5216	48.834299730021	0.027156881338
3	5221	48.861456611359	0.026999385008
3	5226	48.888455996367	0.140661560394
3	5232	49.029117556761	0.006837686949
3	5234	49.03595524371	0.0046308474
3	5239	49.04058609111	0.040392144507
3	5248	49.080978235617	0.008849714941
3	5253	49.089827950558	0.03025188314
3	5258	49.120079833698	0.020233991737
3	5263	49.140313825435	0.047823179401
3	5269	49.188137004836	0.024356975227
3	5274	49.212493980063	0.054356820651
3	5280	49.266850800714	0.047649614232
3	5286	49.314500414946	0.012027446824
3	5292	49.32652786177	0.02923305134
3	5297	49.35576091311	0.114992145676
3	5303	49.470753058786	0.026122538045
3	5308	49.496875596831	0.040244449119
3	5313	49.53712004595	0.029824538325
3	5318	49.566944584275	0.083560102
3	5324	49.650504686275	0.005820847595
3	5326	49.65632553387	0.02230423607
3	5335	49.67862976994	0.056997721692
3	5340	49.735627491632	0.012594522624
3	5345	49.748222014256	0.035237954597
3	5350	49.783459968853	0.012531915549
3	5355	49.795991884402	0.027956973421
3	5361	49.823948857823	0.02594566028
3	5366	49.849894518103	0.030039198271
3	5371	49.879933716374	0.071181895491
3	5377	49.951115611865	0.114685993663
3	5384	50.065801605528	0.019266497789
3	5389	50.085068103317	0.020444168853
3	5394	50.10551227217	0.116010888794
3	5401	50.221523160964	0.156329882198
3	5406	50.377853043162	0.125488276469
3	5411	50.503341319631	0.01648925602
3	5416	50.519830575651	0.035261766198
3	5421	50.555092341849	0.14352752243
3	5426	50.698619864279	0.170023115912
3	5433	50.868642980191	0.002933209141
3	5435	50.871576189332	0.118999375684
3	5444	50.990575565016	0.070435515682
3	5450	51.061011080698	0.003902981178
3	5452	51.064914061876	0.120757101308
3	5462	51.185671163184	0.034230578671
3	5467	51.219901741855	0.004411529652
3	5469	51.224313271507	0.031447011425
3	5477	51.255760282932	0.004325424037
3	5479	51.260085706969	0.021648814156
3	5488	51.281734521125	0.001646179747
3	5490	51.283380700872	0.065808486828
3	5498	51.3491891877	0.00220888771
3	5500	51.35139807541	0.018883811785
3	5508	51.370281887195	0.03610460293
3	5513	51.406386490125	0.024794646544
3	5518	51.431181136669	0.004351641944
3	5520	51.435532778613	0.160872274012
3	5532	51.596405052625	0.036387648394
3	5538	51.632792701019	0.032541453502
3	5543	51.665334154521	0.009798360533
3	5548	51.675132515054	0.048779746338
3	5553	51.723912261392	0.000355441031
3	5555	51.724267702423	0.030699051459
3	5563	51.754966753882	0.000678643369
3	5565	51.755645397251	0.023001351746
3	5573	51.778646748997	0.13026295857
3	5580	51.908909707567	0.129114225368
3	5588	52.038023932935	0.228110717551
3	5597	52.266134650486	0.028188233839
3	5602	52.294322884325	0.001953695595
3	5604	52.29627657992	0.105343531035
3	5612	52.401620110955	0.068345204373
3	5618	52.469965315328	0.012586372013
3	5623	52.482551687341	0.000484406273
3	5625	52.483036093614	0.293350076927
3	5633	52.776386170541	0.072011761444
3	5639	52.848397931985	0.07492606554
3	5644	52.923323997525	0.125190267177
3	5650	53.048514264702	0.053376800803
3	5655	53.101891065505	0.073193150409
3	5661	53.175084215914	0.069439370555
3	5668	53.244523586469	0.024885995051
3	5673	53.26940958152	0.105797677729
3	5680	53.375207259249	0.089983823031
3	5686	53.46519108228	0.045356065477
3	5691	53.510547147757	0.063798528398
3	5696	53.574345676155	0.017553883199
3	5701	53.591899559354	0.024356301257
3	5707	53.616255860611	0.112852185331
3	5714	53.729108045942	0.032395730277
3	5720	53.761503776219	0.082957460415
3	5725	53.844461236634	0.137658657745
3	5731	53.982119894379	0.000974901382
3	5733	53.983094795761	0.111239038682
3	5742	54.094333834443	0.012634232465
3	5747	54.106968066908	0.012239741901
3	5753	54.119207808809	0.060596961987
3	5758	54.179804770796	0.100928484729
3	5764	54.280733255525	0.008849610877
3	5769	54.289582866402	0.06915496357
3	5774	54.358737829972	0.013818536114
3	5779	54.372556366086	0.101209770572
3	5785	54.473766136658	0.01165383524
3	5790	54.485419971898	0.065647916808
3	5795	54.551067888706	0.041028491667
3	5800	54.592096380373	0.042416809745
3	5805	54.634513190118	0.044923181117
3	5810	54.679436371235	0.03123401954
3	5815	54.710670390775	0.016187495976
3	5820	54.726857886751	0.121562062144
3	5826	54.848419948895	0.012371497595
3	5831	54.86079144649	0.016864443876
3	5837	54.877655890366	0.023393125048
3	5842	54.901049015414	0.123333587335
3	5847	55.024382602749	0.065506137052
3	5853	55.089888739801	0.072636708419
3	5858	55.16252544822	0.014894163369
3	5863	55.177419611589	0.009122044537
3	5868	55.186541656126	0.020616042955
3	5873	55.207157699081	0.001522478467
3	5875	55.208680177548	0.001434812434
3	5877	55.210114989982	0.091288612476
3	5888	55.301403602458	0.076096218337
3	5894	55.377499820795	0.01338291175
3	5899	55.390882732545	0.001773987991
3	5901	55.392656720536	0.069902976866
3	5909	55.462559697402	0.044620358458
3	5915	55.50718005586	0.047503458578
3	5920	55.554683514438	0.036821724605
3	5925	55.591505239043	0.005292074762
3	5927	55.596797313805	0.063954326301
3	5937	55.660751640106	0.0565586813
3	5942	55.717310321406	0.069287510817
3	5948	55.786597832223	0.03141334889
3	5953	55.818011181113	0.031635679464
3	5958	55.849646860577	0.093557305738
3	5964	55.943204166315	0.146665929158
3	5971	56.089870095473	0.021995422056
3	5976	56.111865517529	0.039014384476
3	5981	56.150879902005	0.018564187814
3	5986	56.169444089819	0.081594259515
3	5991	56.251038349334	0.022007983637
3	5996	56.273046332971	0.04259267837
3	6002	56.315639011341	0.039704156416
3	6007	56.355343167757	0.018958753697
3	6012	56.374301921454	0.06306143093
3	6020	56.437363352384	0.114686673532
3	6025	56.552050025916	0.066862152202
3	6031	56.618912178118	0.037880284606
3	6036	56.656792462724	0.004540242707
3	6038	56.661332705431	0.022959777575
3	6047	56.684292483006	0.086588787175
3	6054	56.770881270181	0.020052074917
3	6060	56.790933345098	0.012306339535
3	6065	56.803239684633	0.006848186953
3	6067	56.810087871586	0.017529925276
3	6075	56.827617796862	0.045687786593
3	6080	56.873305583455	0.072528488913
3	6085	56.945834072368	0.063215812277
3	6090	57.009049884645	0.14865596307
3	6096	57.157705847715	0.023023510744
3	6101	57.180729358459	0.146205340358
3	6107	57.326934698817	0.035785599486
3	6112	57.362720298303	0.035329191945
3	6117	57.398049490248	0.100500652918
3	6124	57.498550143166	0.019604321728
3	6129	57.518154464894	0.005144176791
3	6132	57.523298641685	0.006829110136
3	6137	57.530127751821	0.069862728717
3	6145	57.599990480538	0.041511351679
3	6151	57.641501832217	0.116526668676
3	6157	57.758028500893	0.045024453822
3	6162	57.803052954715	0.045884883811
3	6167	57.848937838526	0.010009127038
3	6172	57.858946965564	0.007839622379
3	6177	57.866786587943	0.045857286662
3	6182	57.912643874605	0.081450803838
3	6188	57.994094678443	0.005709949288
3	6190	57.999804627731	0.037360638371
3	6199	58.037165266102	0.019256003687
3	6204	58.056421269789	0.031947670251
3	6209	58.08836894004	0.029384980591
3	6214	58.117753920631	0.018079664155
3	6219	58.135833584786	0.046713007416
3	6225	58.182546592202	0.095904772854
3	6232	58.278451365056	0.060721763235
3	6237	58.339173128291	0.091287716099
3	6244	58.43046084439	0.013337581769
3	6249	58.443798426159	0.04571775448
3	6254	58.489516180639	0.027948865154
3	6259	58.517465045793	0.035886037593
3	6265	58.553351083386	0.026150372977
3	6270	58.579501456363	0.003401458046
3	6272	58.582902914409	0.089251028921
3	6280	58.67215394333	0.055703966039
3	6285	58.727857909369	0.066519861784
3	6290	58.794377771153	0.032068631587
3	6295	58.82644640274	0.070654821157
3	6301	58.897101223897	0.228472394268
3	6308	59.125573618165	0.018435347834
3	6313	59.144008965999	0.003397502241
3	6315	59.14740646824	0.08421176644
3	6325	59.23161823468	0.040276808951
3	6330	59.271895043631	0.001972943836
3	6332	59.273867987467	0.064307738218
3	6340	59.338175725685	0.080237708448
3	6346	59.418413434133	0.073562311238
3	6352	59.491975745371	0.046810918402
3	6358	59.538786663773	0.002349612257
3	6360	59.54113627603	0.091112043023
3	6368	59.632248319053	0.027418929349
3	6373	59.659667248402	0.039518649129
3	6378	59.699185897531	0.026592814187
3	6384	59.725778711718	0.071994209588
3	6391	59.797772921306	0.008216720312
3	6396	59.805989641618	0.070560564413
3	6401	59.876550206031	0.054750798081
3	6406	59.931301004112	0.091578607619
3	6412	60.022879611731	0.003564431163
3	6414	60.026444042894	0.113216187845
3	6422	60.139660230739	0.035131455361
3	6427	60.1747916861	0.071959304576
3	6433	60.246750990676	0.086515078951
3	6438	60.333266069627	0.011810320841
3	6443	60.345076390468	0.034567122028
3	6449	60.379643512496	0.08144021766
3	6457	60.461083730156	0.018407672647
3	6462	60.479491402803	0.017539851475
3	6467	60.497031254278	0.007831374782
3	6472	60.50486262906	0.016218819097
3	6477	60.521081448157	0.113439873526
3	6484	60.634521321683	0.007135669969
3	6489	60.641656991652	0.040858189518
3	6494	60.68251518117	0.418492802308
3	6502	61.101007983478	0.247256526344
3	6507	61.348264509822	0.00524382661
3	6509	61.353508336432	0.092551595296
3	6518	61.446059931728	0.007860818964
3	6524	61.453920750692	0.029173654077
3	6529	61.483094404769	0.026479380422
3	6534	61.509573785191	0.032758454978
3	6539	61.542332240169	0.034444260493
3	6544	61.576776500662	0.019830035312
3	6549	61.596606535974	0.140783641784
3	6559	61.737390177758	0.053221242308
3	6564	61.790611420066	0.201528567083
3	6569	61.992139987149	0.011096685886
3	6574	62.003236673035	0.060416842871
3	6580	62.063653515906	0.002963516728
3	6582	62.066617032634	0.150010766154
3	6592	62.216627798788	0.03125265864
3	6599	62.247880457428	0.029217556946
3	6604	62.277098014374	0.080069390474
3	6610	62.357167404848	0.018850881447
3	6615	62.376018286295	0.099316351186
3	6623	62.475334637481	0.031264348172
3	6628	62.506598985653	0.091005243619
3	6633	62.597604229272	0.038261670597
3	6639	62.635865899869	0.056384869558
3	6644	62.692250769427	0.075762630562
3	6649	62.768013399989	0.094475376916
3	6654	62.862488776905	0.102995521793
3	6659	62.965484298698	0.033894606377
3	6664	62.999378905075	0.045691175658
3	6669	63.045070080733	0.002585610693
3	6671	63.047655691426	0.102070252572
3	6679	63.149725943998	0.036595948413
3	6684	63.186321892411	0.081105586174
3	6689	63.267427478585	0.0955333643
3	6694	63.362960842885	0.012173579157
3	6699	63.375134422042	0.125877115714
3	6705	63.501011537756	0.008143015458
3	6707	63.509154553214	0.206775327171
3	6716	63.715929880385	0.06470048259
3	6722	63.780630362975	0.031634533205
3	6727	63.81226489618	0.013145480819
3	6732	63.825410376999	0.127669928368
3	6737	63.953080305367	0.006994931308
3	6739	63.960075236675	0.05274927689
3	6748	64.012824513565	0.045904795339
3	6753	64.058729308904	0.004934748263
3	6755	64.063664057167	0.006437358825
3	6760	64.070101415992	0.08564458221
3	6769	64.155745998202	0.012910806824
3	6774	64.168656805026	0.054706793442
3	6779	64.223363598468	0.088705811858
3	6784	64.312069410326	0.119572902023
3	6789	64.431642312349	0.122116611704
3	6794	64.553758924053	0.012244603203
3	6799	64.566003527256	0.011024008643
3	6804	64.577027535899	0.016693914791
3	6809	64.59372145069	0.004216805538
3	6811	64.597938256228	0.317155080466
3	6820	64.915093336694	0.063097394427
3	6825	64.978190731121	0.059397731464
3	6831	65.037588462585	0.02274288698
3	6836	65.060331349565	0.091391108229
3	6843	65.151722457794	0.021727863379
3	6848	65.173450321173	0.175421475872
3	6854	65.348871797045	0.002646437107
3	6856	65.351518234152	0.104366526142
3	6864	65.455884760294	0.037989504436
3	6869	65.49387426473	0.003286785143
3	6871	65.497161049873	0.008196589615
3	6876	65.505357639488	0.072371529813
3	6886	65.577729169301	0.062660321024
3	6892	65.640389490325	0.031550034843
3	6898	65.671939525168	0.004433461708
3	6900	65.676372986876	0.02377361347
3	6908	65.700146600346	0.056908335778
3	6914	65.757054936124	0.136329179945
3	6920	65.893384116069	0.027339695459
3	6926	65.920723811528	0.012277019932
3	6932	65.93300083146	0.021281368697
3	6937	65.954282200157	0.11195467564
3	6944	66.066236875797	0.047416621984
3	6949	66.113653497781	0.042076607928
3	6954	66.155730105709	0.091023986326
3	6960	66.246754092035	0.048863640322
3	6966	66.295617732357	0.015142285805
3	6971	66.310760018162	0.004055803297
3	6973	66.314815821459	0.029567141028
3	6982	66.344382962487	0.134574620389
3	6989	66.478957582876	0.090900728089
3	6994	66.569858310965	0.007592964379
3	6996	66.577451275344	0.102405777005
3	7004	66.679857052349	0.043601404601
3	7009	66.72345845695	0.012733019962
3	7014	66.736191476912	0.075021251149
3	7019	66.811212728061	0.073634283766
3	7025	66.884847011827	0.052281415476
3	7031	66.937128427303	0.057235483286
3	7036	66.994363910589	0.001397912545
3	7038	66.995761823134	0.049852757102
3	7047	67.045614580236	0.006841395797
3	7049	67.052455976033	0.07048000832
3	7057	67.122935984353	0.190185953223
3	7065	67.313121937576	0.013771565298
3	7070	67.326893502874	0.062610238436
3	7075	67.38950374131	0.013571697994
3	7080	67.403075439304	0.096649435662
3	7085	67.499724874966	0.08049741398
3	7090	67.580222288946	0.028990034646
3	7095	67.609212323592	0.000879329817
3	7097	67.610091653409	0.041494523797
3	7105	67.651586177206	0.019457373864
3	7110	67.67104355107	0.009458627366
3	7115	67.680502178436	0.04239862862
3	7120	67.722900807056	0.046427386215
3	7125	67.769328193271	0.090269143265
3	7130	67.859597336536	0.066985517016
3	7136	67.926582853552	0.071588229987
3	7142	67.998171083539	0.007036378169
3	7144	68.005207461708	0.038290408726
3	7153	68.043497870434	0.135897374279
3	7159	68.179395244713	0.060174998005
3	7165	68.239570242718	0.047775979735
3	7170	68.287346222453	0.009586831316
3	7175	68.296933053769	0.045921475912
3	7180	68.342854529681	0.012147892808
3	7185	68.355002422489	0.025461716168
3	7190	68.380464138657	0.009264281293
3	7195	68.38972841995	0.039226664435
3	7200	68.428955084385	0.071883790763
3	7205	68.500838875148	0.009406353954
3	7210	68.510245229102	0.122609882406
3	7218	68.632855111508	0.031466782681
3	7223	68.664321894189	0.005986533267
3	7225	68.670308427456	0.099878508266
3	7233	68.770186935722	0.037660805534
3	7238	68.807847741256	0.017193049203
3	7243	68.825040790459	0.021761970598
3	7249	68.846802761057	0.002646482767
3	7251	68.849449243824	0.014736146504
3	7260	68.864185390328	0.025531055703
3	7265	68.889716446031	0.053216087005
3	7271	68.942932533036	0.018057465751
3	7276	68.960989998787	0.054429913491
3	7281	69.015419912278	0.048602541419
3	7286	69.064022453697	0.040236788107
3	7292	69.104259241804	0.05720436837
3	7297	69.161463610174	0.105363414851
3	7302	69.266827025025	0.036338713652
3	7307	69.303165738677	0.036085850934
3	7312	69.339251589611	0.143228223451
3	7318	69.482479813062	0.001782958908
3	7320	69.48426277197	0.038136200641
3	7328	69.522398972611	0.030677515334
3	7333	69.553076487945	0.045354394851
3	7338	69.598430882796	0.067307263282
3	7345	69.665738146078	0.019503573408
3	7350	69.685241719486	0.044357138566
3	7355	69.729598858052	0.168186668517
3	7360	69.897785526569	0.020825782736
3	7365	69.918611309305	0.129885064546
3	7372	70.048496373851	0.001071409042
3	7374	70.049567782893	0.124379261635
3	7382	70.173947044528	0.049282615932
3	7389	70.22322966046	0.049380525435
3	7394	70.272610185895	0.028220907913
3	7400	70.300831093808	0.051597427653
3	7405	70.352428521461	0.011996710958
3	7410	70.364425232419	0.036405644445
3	7415	70.400830876864	0.002599232657
3	7417	70.403430109521	0.083643942394
3	7425	70.487074051915	0.054263783784
3	7432	70.541337835699	0.042216171965
3	7437	70.583554007664	0.015088105515
3	7442	70.598642113179	0.014053856488
3	7447	70.612695969667	0.142935147195
3	7452	70.755631116862	0.015868835179
3	7457	70.771499952041	0.046499617272
3	7462	70.817999569313	0.052924684762
3	7467	70.870924254075	0.150508303056
3	7473	71.021432557131	0.018109340662
3	7479	71.039541897793	0.332109962829
3	7488	71.371651860622	0.010892646844
3	7493	71.382544507466	0.005513913839
3	7495	71.388058421305	0.27752493277
3	7506	71.665583354075	0.035578525213
3	7511	71.701161879288	0.018182547122
3	7516	71.71934442641	0.012982433529
3	7523	71.732326859939	0.037064558844
3	7529	71.769391418783	0.015841337405
3	7534	71.785232756188	0.006083450806
3	7536	71.791316206994	0.061285707061
3	7545	71.852601914055	0.085311061226
3	7550	71.937912975281	0.08424601144
3	7555	72.022158986721	0.011452178939
3	7560	72.03361116566	0.069106445002
3	7565	72.102717610662	0.094450673395
3	7572	72.197168284057	0.002437661314
3	7574	72.199605945371	0.046748150883
3	7582	72.246354096254	0.154168501723
3	7587	72.400522597977	0.016055793534
3	7592	72.416578391511	0.005439977689
3	7594	72.4220183692	0.032085137183
3	7602	72.454103506383	0.010502529182
3	7607	72.464606035565	0.068829621147
3	7612	72.533435656712	0.1420458449
3	7619	72.675481501612	0.026975410423
3	7624	72.702456912035	0.039843050334
3	7630	72.742299962369	0.025777309272
3	7635	72.768077271641	0.004258750942
3	7637	72.772336022583	0.004696911187
3	7642	72.77703293377	0.003684266558
3	7644	72.780717200328	0.044578786639
3	7655	72.825295986967	0.025424742036
3	7660	72.850720729003	0.244333413698
3	7667	73.095054142701	0.008267424556
3	7669	73.103321567257	0.018184176968
3	7677	73.121505744225	0.043205081863
3	7682	73.164710826088	0.006681867714
3	7684	73.171392693802	0.012584952586
3	7692	73.183977646388	0.033687579056
3	7697	73.217665225444	0.021284082159
3	7703	73.238949307603	0.225528681905
3	7709	73.464477989508	0.05128560535
3	7714	73.515763594858	0.016306393611
3	7719	73.532069988469	0.010043884051
3	7724	73.54211387252	0.03510304798
3	7729	73.5772169205	0.00017880654
3	7731	73.57739572704	0.010178768822
3	7736	73.587574495862	0.068183384761
3	7744	73.655757880623	0.082272334582
3	7749	73.738030215205	0.004857737111
3	7751	73.742887952316	0.078253919057
3	7759	73.821141871373	0.063494634354
3	7764	73.884636505727	0.009953215148
3	7769	73.894589720875	0.017870671739
3	7774	73.912460392614	0.001752546186
3	7776	73.9142129388	0.034513951124
3	7784	73.948726889924	0.025179618427
3	7789	73.973906508351	0.093618453188
3	7794	74.067524961539	0.06836536646
3	7799	74.135890327999	0.166852505271
3	7806	74.30274283327	0.060196012046
3	7813	74.362938845316	0.027425765932
3	7818	74.390364611248	0.028483983576
3	7824	74.418848594824	0.073651955039
3	7830	74.492500549863	0.003188325086
3	7832	74.495688874949	0.029158987314
3	7841	74.524847862263	0.013701404008
3	7846	74.538549266271	0.037254076702
3	7851	74.575803342973	0.007466190291
3	7853	74.583269533264	0.081783457782
3	7862	74.665052991046	0.091114238905
3	7868	74.756167229951	0.080254750058
3	7874	74.836421980009	0.005512256675
3	7876	74.841934236684	0.074036776003
3	7884	74.915971012687	0.035377748694
3	7889	74.951348761381	0.233766656386
3	7895	75.185115417767	0.057436277039
3	7900	75.242551694806	0.027648495789
3	7906	75.270200190595	0.164741608185
3	7911	75.43494179878	0.025037016689
3	7918	75.459978815469	0.126457961936
3	7923	75.586436777405	0.032944221232
3	7928	75.619380998637	0.013871908098
3	7933	75.633252906735	0.007566281238
3	7935	75.640819187973	0.018223331953
3	7943	75.659042519926	0.046984725409
3	7948	75.706027245335	0.026010502525
3	7954	75.73203774786	0.023284995962
3	7959	75.755322743822	0.022438094907
3	7964	75.777760838729	0.087372992268
3	7974	75.865133830997	0.020430240187
3	7979	75.885564071184	0.159660276493
3	7986	76.045224347677	0.090619404038
3	7991	76.135843751715	0.009959131946
3	7996	76.145802883661	0.021413357712
3	8001	76.167216241373	0.006793282331
3	8003	76.174009523704	0.017014916054
3	8011	76.191024439758	0.261908642107
3	8017	76.452933081865	0.018818297222
3	8022	76.471751379087	0.041587412272
3	8028	76.513338791359	0.012515986273
3	8033	76.525854777632	0.021797160026
3	8038	76.547651937658	0.010067679319
3	8043	76.557719616977	0.027954383949
3	8049	76.585674000926	0.002053804315
3	8051	76.587727805241	0.010049157379
3	8056	76.59777696262	0.008387714747
3	8061	76.606164677367	0.019716994373
3	8070	76.62588167174	0.03782643158
3	8075	76.66370810332	0.049822121505
3	8080	76.713530224825	0.035265588102
3	8085	76.748795812927	0.001772430089
3	8087	76.750568243016	0.022034985959
3	8095	76.772603228975	5.3400519e-05
3	8097	76.772656629494	0.004510369742
3	8099	76.777166999236	0.066638494086
3	8114	76.843805493322	0.06839927199
3	8119	76.912204765312	0.050668185729
3	8124	76.962872951041	0.022079574758
3	8129	76.984952525799	0.201745121774
3	8135	77.186697647573	0.043584310983
3	8140	77.230281958556	0.06454512358
3	8145	77.294827082136	0.023605458503
3	8150	77.318432540639	0.005425727474
3	8152	77.323858268113	0.095304041359
3	8161	77.419162309472	0.010204636847
3	8166	77.429366946319	0.009839286972
3	8171	77.439206233291	0.090167364513
3	8176	77.529373597804	0.026092864665
3	8181	77.555466462469	0.003646811185
3	8183	77.559113273654	0.066958957735
3	8191	77.626072231389	0.04971842409
3	8196	77.675790655479	0.050546514048
3	8201	77.726337169527	0.005159108504
3	8203	77.731496278031	0.013796106218
3	8211	77.745292384249	0.053192763941
3	8216	77.79848514819	0.004235139301
3	8218	77.802720287491	0.012764094984
3	8226	77.815484382475	0.064366524076
3	8231	77.879850906551	0.014055088689
3	8236	77.89390599524	0.008282135873
3	8241	77.902188131113	0.053247610688
3	8246	77.955435741801	0.056873752315
3	8251	78.012309494116	0.023734183722
3	8256	78.036043677838	0.057410310442
3	8261	78.09345398828	0.011522045741
3	8266	78.104976034021	0.009936797077
3	8271	78.114912831098	0.01608301329
3	8276	78.130995844388	0.018265515981
3	8281	78.149261360369	0.105775555482
3	8286	78.255036915851	0.086014751431
3	8292	78.341051667282	0.031751729542
3	8297	78.372803396824	0.017247731867
3	8302	78.390051128691	0.00324492846
3	8304	78.393296057151	0.034551147591
3	8312	78.427847204742	0.021536586585
3	8317	78.449383791327	0.017423267297
3	8322	78.466807058624	0.252349571132
3	8328	78.719156629756	0.025506403404
3	8333	78.74466303316	0.062971899699
3	8338	78.807634932859	0.101517172901
3	8344	78.90915210576	0.053508066863
3	8349	78.962660172623	0.013335432459
3	8354	78.975995605082	0.016116658736
3	8359	78.992112263818	0.052920755835
3	8364	79.045033019653	0.086109086316
3	8369	79.131142105969	0.013301672668
3	8375	79.144443778637	0.050017309175
3	8383	79.194461087812	0.051914910342
3	8389	79.246375998154	0.130651589669
3	8395	79.377027587823	0.181318146458
3	8403	79.558345734281	0.030260121309
3	8408	79.58860585559	0.018857190504
3	8413	79.607463046094	0.038063987982
3	8419	79.645527034076	0.109845532701
3	8425	79.755372566777	0.020967183052
3	8430	79.776339749829	0.077067495781
3	8436	79.85340724561	0.014161512803
3	8441	79.867568758413	0.132610215024
3	8446	80.000178973437	0.011303312991
3	8451	80.011482286428	0.002212917872
3	8453	80.0136952043	0.161280831416
3	8461	80.174976035716	0.084441973885
3	8466	80.259418009601	0.005871270809
3	8468	80.26528928041	0.084663448419
3	8477	80.349952728829	0.031991749904
3	8483	80.381944478733	6.4652005e-05
3	8485	80.382009130738	0.063934985969
3	8494	80.445944116707	0.029925807275
3	8499	80.475869923982	0.005753187563
3	8501	80.481623111545	0.028345000767
3	8509	80.509968112312	0.040575674606
3	8514	80.550543786918	0.130490129095
3	8519	80.681033916013	0.030739572008
3	8524	80.711773488021	0.119678421774
3	8531	80.831451909795	0.103865837
3	8536	80.935317746795	0.007112573684
3	8538	80.942430320479	0.10611314818
3	8546	81.048543468659	0.150710848616
3	8553	81.199254317275	0.01600856038
3	8558	81.215262877655	0.014302176845
3	8563	81.2295650545	0.011695715684
3	8568	81.241260770184	0.002184389444
3	8570	81.243445159628	0.027766866368
3	8578	81.271212025996	0.049542593004
3	8584	81.320754619	0.01608558911
3	8589	81.33684020811	0.020512477267
3	8594	81.357352685377	0.010216959887
3	8599	81.367569645264	0.042679834635
3	8604	81.410249479899	0.009641914054
3	8609	81.419891393953	0.035136858932
3	8614	81.455028252885	0.024625758253
3	8620	81.479654011138	0.021867175943
3	8625	81.501521187081	0.037599351302
3	8630	81.539120538383	0.010202835497
3	8635	81.54932337388	0.012772212307
3	8640	81.562095586187	0.02824587987
3	8645	81.590341466057	0.119611635192
3	8651	81.709953101249	0.013841233093
3	8656	81.723794334342	0.021350159791
3	8661	81.745144494133	0.101049082994
3	8667	81.846193577127	0.003442851413
3	8669	81.84963642854	0.057748132792
3	8677	81.907384561332	0.169342970467
3	8683	82.076727531799	0.03011898315
3	8688	82.106846514949	0.130032753154
3	8694	82.236879268103	0.011749950454
3	8699	82.248629218557	0.027750908347
3	8704	82.276380126904	0.001177845143
3	8706	82.277557972047	0.024007022025
3	8714	82.301564994072	0.151791239046
3	8719	82.453356233118	0.042234893084
3	8725	82.495591126202	0.114158814613
3	8730	82.609749940815	0.018489985238
3	8735	82.628239926053	0.03827239023
3	8740	82.666512316283	0.012809394785
3	8745	82.679321711068	0.10096184193
3	8752	82.780283552998	0.00213964921
3	8754	82.782423202208	0.000496056901
3	8756	82.782919259109	0.162113005242
3	8769	82.945032264351	0.008289985668
3	8774	82.953322250019	0.072432758134
3	8779	83.025755008153	0.07331439988
3	8785	83.099069408033	0.114403059887
3	8791	83.21347246792	0.00091667504
3	8793	83.21438914296	0.07863568754
3	8801	83.2930248305	0.00101477358
3	8803	83.29403960408	0.006535366735
3	8805	83.300574970815	0.006840743044
3	8810	83.307415713859	0.077454804412
3	8821	83.384870518271	0.070254724169
3	8826	83.45512524244	0.063859768901
3	8831	83.518985011341	0.005663929115
3	8833	83.524648940456	0.045581561072
3	8842	83.570230501528	0.022473605012
3	8847	83.59270410654	0.011533624917
3	8852	83.604237731457	0.082592421382
3	8859	83.686830152839	0.101038275241
3	8864	83.78786842808	0.193741491795
3	8870	83.981609919875	0.184341092227
3	8878	84.165951012102	0.181396787997
3	8883	84.347347800099	0.028295031851
3	8888	84.37564283195	0.002419917123
3	8890	84.378062749073	0.039377699744
3	8898	84.417440448817	0.007700153791
3	8903	84.425140602608	0.080860590435
3	8908	84.506001193043	0.04290955284
3	8914	84.548910745883	0.003309418278
3	8916	84.552220164161	0.006759590408
3	8921	84.558979754569	0.003883230948
3	8923	84.562862985517	0.078145400433
3	8935	84.64100838595	0.028330426855
3	8941	84.669338812805	0.073621955229
3	8946	84.742960768034	0.084643667958
3	8952	84.827604435992	0.020784146413
3	8958	84.848388582405	0.011408567996
3	8963	84.859797150401	0.063783019194
[...]
19	24044	224.425924016274	1.672517826352
19	24225	226.098441842626	0.3446263033584
19	24257	226.443068145984	1.2833622483164
19	24377	227.7264303943	0.017541593071264
19	24378	227.743971987371	1.6452107473082
19	24547	229.389182734679	3.5812380112871
19	25010	232.970420745966	8.1194256259412
19	25845	241.089846371907	8.5693320609802
19	26857	249.659178432887	3.195337133637
19	27201	252.854515566524	1.239777473873
19	27341	254.094293040397	3.9034115792207
19	27688	257.997704619618	0.66378054764718
19	27737	258.661485167265	0.52906308368335
19	27806	259.190548250948	0.77904328004879
19	27883	259.969591530997	0.63293354688379
19	27941	260.602525077881	0.8020134583766
19	28037	261.404538536258	3.2009822659497
19	28369	264.605520802208	0.99528793889804
19	28461	265.600808741106	2.354339671256
19	28693	267.955148412362	3.2277737897727
19	29038	271.182922202135	1.1401630419201
19	29146	272.323085244055	0.24432993834896
19	29173	272.567415182404	6.1984964887777
19	29876	278.765911671182	5.2213026474211
19	30400	283.987214318603	0.14370711367122
19	30430	284.130921432274	0.60652200896514
19	30515	284.737443441239	0.07178024221571
19	30516	284.809223683455	2.2275486511807
19	30745	287.036772334636	1.6506723613656
19	31016	288.687444696002	0.45107994531613
19	31071	289.138524641318	1.3304225937536
19	31258	290.468947235072	1.4963384786555
19	31394	291.965285713727	0.74579318697569
19	31449	292.711078900703	2.3977323525098
19	31734	295.108811253213	1.2836702662409
19	31894	296.392481519454	0.78821484384488
19	32000	297.180696363299	4.6430447844613
19	32448	301.82374114776	4.2527737090083
19	32913	306.076514856768	1.5239725123674
19	33063	307.600487369135	0.5377729611476
19	33099	308.138260330283	3.5326166048309
19	33428	311.670876935114	0.13485187095745
19	33444	311.805728806071	1.9576686357525
19	33672	313.763397441824	1.4563664429032
19	33840	315.219763884727	0.36818490310918
19	33874	315.587948787836	1.5699646338708
19	34047	317.157913421707	2.5657572423327
19	34286	319.72367066404	2.0436030393482
19	34505	321.767273703388	0.27537760424927
19	34532	322.042651307637	1.0707973095031
19	34706	323.11344861714	1.9753739130309
19	34922	325.088822530171	8.8713639106896
19	35806	333.960186440861	2.3015661477263
19	36053	336.261752588587	0.15493980868006
19	36060	336.416692397267	2.0525103248054
19	36305	338.469202722072	4.8241655432759
19	36842	343.293368265348	1.2426393772613
19	37004	344.536007642609	0.62865666357333
19	37056	345.164664306182	0.69782959517688
19	37106	345.862493901359	1.3812343605098
19	37247	347.243728261869	6.4355464793448
19	37906	353.679274741214	7.3290246600692
19	38625	361.008299401283	7.6180366429181
19	39414	368.626336044201	1.3549309491921
19	39575	369.981266993393	3.4005174546791
19	39903	373.381784448072	3.0003419582887
19	40232	376.382126406361	4.2276041249087
19	40724	380.60973053127	1.5458262588658
19	40908	382.155556790136	0.26225659396322
19	40923	382.417813384099	2.5001738899868
19	41269	384.917987274086	0.93062373510841
19	41376	385.848611009194	1.3317210934934
19	41529	387.180332102687	0.03630796613228
19	41535	387.216640068819	2.1884433768248
19	41744	389.405083445644	1.3317517912537
19	41883	390.736835236898	1.3911911849326
19	42066	392.128026421831	0.88231489993427
19	42115	393.010341321765	6.8410061294717
19	42835	399.851347451237	0.78599362364871
20	1920	17.454636705221	0.24906626619739
20	1942	17.703702971418	0.70234429205386
20	2036	18.406047263472	1.6931836479713
20	2189	20.099230911443	0.55089161061398
20	2250	20.650122522057	1.4429935009892
20	2379	22.093116023046	0.2393232058624
20	2396	22.332439228908	4.093015514169
20	2885	26.425454743077	1.3958274475663
20	2990	27.821282190643	0.89597048147233
20	3108	28.717252672115	2.4381285294909
20	3312	31.155381201606	1.3534284615387
20	3458	32.508809663145	0.036067573723682
20	3460	32.544877236869	4.9640070048815
20	3964	37.508884241751	0.053127905221909
20	3970	37.562012146973	3.1844943343536
20	4294	40.746506481327	2.1664977042579
20	4493	42.913004185585	0.13321230423793
20	4522	43.046216489823	1.6340534515817
20	4678	44.680269941405	0.10367252439838
20	4691	44.783942465803	2.6323559230641
20	5038	47.416298388867	1.8420317171068
20	5279	49.258330105974	0.037723961023886
20	5285	49.296054066998	1.7184020870069
20	5449	51.014456154005	1.1040205122275
20	5594	52.118476666232	2.9309281468541
20	5852	55.049404813086	3.1320626525337
20	6224	58.18146746562	2.2097847196423
20	6455	60.391252185262	0.56582468185072
20	6500	60.957076867113	5.4166411434429
20	6987	66.373718010556	0.037367286855794
20	6988	66.411085297412	0.81568131393399
20	7064	67.226766611346	2.3793697906179
20	7343	69.606136401964	2.1165229883609
20	7518	71.722659390325	0.932272984241
20	7618	72.654932374566	0.066017798486264
20	7629	72.720950173052	0.16974913512438
20	7665	72.890699308176	9.029738120881
20	8682	81.920437429057	0.78852289816468
20	8750	82.708960327222	2.0734806603858
20	8951	84.782440987608	1.8397458815649
20	9173	86.622186869173	0.3071317662187
20	9207	86.929318635392	0.1827826763741
20	9216	87.112101311766	0.55694729329904
20	9293	87.669048605065	2.3290787480312
20	9464	89.998127353096	2.1757996306425
20	9640	92.173926983739	1.3798014974911
20	9803	93.55372848123	0.26461187684313
20	9832	93.818340358073	0.47262159070021
20	9881	94.290961948773	0.44511187140003
20	9943	94.736073820173	5.6476828878826
20	10515	100.383756708056	2.3830710718704
20	10736	102.766827779926	0.73916143883692
20	10833	103.505989218763	1.7875084273305
20	11066	105.293497646093	0.37765603277052
20	11119	105.671153678864	0.26115757610757
20	11157	105.932311254972	0.8215967130774
20	11229	106.753907968049	6.2987288201837
20	11955	113.052636788233	1.6737708724082
20	12103	114.726407660641	5.3556286407396
20	12693	120.082036301381	0.64076289619145
20	12794	120.722799197572	0.95642246376676
20	12915	121.679221661339	1.1071029677003
20	13023	122.786324629039	1.0540615231209
20	13116	123.84038615216	1.6789248334327
20	13268	125.519310985593	2.1133759804544
20	13509	127.632686966047	6.9412866121191
20	14205	134.573973578166	3.4534500928516
20	14635	138.027423671018	2.1322740129258
20	14858	140.159697683944	0.887869460328
20	14931	141.047567144272	2.5092751540752
20	15187	143.556842298347	1.4527640137286
20	15361	145.009606312076	0.28482317061154
20	15400	145.294429482688	3.833320226833
20	15861	149.127749709521	3.4775431368167
20	16236	152.605292846338	0.47054899062785
20	16286	153.075841836966	0.79146729265034
20	16358	153.867309129616	1.7204622960868
20	16554	155.587771425703	0.019275859358321
20	16555	155.607047285061	2.6053556371364
20	16825	158.212402922197	0.84976320900041
20	16904	159.062166131197	0.59379147000658
20	16970	159.655957601204	0.48981134261235
20	17061	160.145768943816	1.5344816177456
20	17258	161.680250561562	2.8375412533049
20	17568	164.517791814867	1.433519796881
20	17768	165.951311611748	0.85751636045304
20	17862	166.808827972201	2.5523389994241
20	18097	169.361166971625	3.4727437948404
20	18511	172.833910766465	1.2521312181995
20	18647	174.086041984664	2.4187688980624
20	18881	176.504810882726	2.512612372107
20	19152	179.017423254833	0.039211329569768
20	19161	179.056634584403	2.0607044668304
20	19337	181.117339051233	0.99438447058356
20	19459	182.111723521817	4.4158761839419
20	19940	186.527599705759	0.09096183677288
20	19947	186.618561542532	3.7277240740576
20	20327	190.34628561659	0.38964457255032
20	20365	190.73593018914	1.2907236906246
20	20509	192.026653879765	2.0518954154012
20	20701	194.078549295166	0.22086778733542
20	20723	194.299417082501	0.4622980823419
20	20763	194.761715164843	1.8532598637393
20	20986	196.614975028582	0.31443550178221
20	21007	196.929410530364	5.4389673669714
20	21542	202.368377897335	2.8795505602796
20	21870	205.247928457615	0.0040176763300005
20	21872	205.251946133945	0.51938829756614
20	21923	205.771334431511	0.46424079775918
20	21983	206.23557522927	2.6876484067636
20	22250	208.923223636034	0.84040807433389
20	22340	209.763631710368	0.26588570526873
20	22359	210.029517415637	1.1442024246244
20	22463	211.173719840261	3.9003958695068
20	22990	215.074115709768	2.4012885372618
20	23268	217.47540424703	0.12842765179401
20	23290	217.603831898824	3.9041287716012
20	23723	221.507960670425	5.0267964403742
20	24263	226.534757110799	4.2356935775514
20	24721	230.77045068835	0.49664024982952
20	24787	231.26709093818	2.0155395541542
20	25041	233.282630492334	4.4904761194589
20	25491	237.773106611793	0.50572476894622
20	25545	238.278831380739	7.6950409796226
20	26430	245.973872360362	2.491000737448
20	26729	248.46487309781	5.3130242054903
20	27312	253.7778973033	2.1166203296937
20	27488	255.894517632994	1.1841099796418
20	27585	257.078627612636	2.4025678771626
20	27837	259.481195489799	0.62172670805507
20	27889	260.102922197854	4.1703157041018
20	28317	264.273237901956	2.4795268642747
20	28585	266.752764766231	0.56563965392501
20	28640	267.318404420156	1.1887413774014
20	28732	268.507145797557	4.0704263747405
20	29174	272.577572172297	1.4242728537729
20	29358	274.00184502607	0.52137014565253
20	29412	274.523215171723	0.6975910192419
20	29471	275.220806190965	0.51494197097295
20	29542	275.735748161938	1.5419487019533
20	29703	277.277696863891	0.15528117537207
20	29732	277.432978039263	0.76945531225794
20	29823	278.202433351521	1.8710122308951
20	30022	280.073445582416	3.7792173519036
20	30383	283.85266293432	0.15607214178884
20	30402	284.008735076109	2.2925690774418
20	30662	286.301304153551	0.71995786302048
20	30740	287.021262016571	0.45300076841462
20	30822	287.474262784986	1.0951775483901
20	30985	288.569440333376	4.5606038540915
20	31510	293.130044187468	1.4930875821073
20	31674	294.623131769575	0.17310034507038
20	31689	294.796232114645	0.96041983762876
20	31838	295.756651952274	0.20358622514186
20	31855	295.960238177416	0.82826748835185
20	31952	296.788505665768	3.6330361900009
20	32327	300.421541855769	3.1352040196792
20	32630	303.556745875448	1.7669891777065
20	32814	305.323735053155	1.2429648973018
20	32976	306.566699950457	0.17381604796415
20	32993	306.740515998421	3.1715278503533
20	33267	309.912043848774	0.72873534833524
20	33316	310.640779197109	1.8460395154053
20	33542	312.486818712514	0.059727058204885
20	33548	312.546545770719	0.48060156927943
20	33582	313.027147339998	0.65328766516747
20	33657	313.680435005165	0.22873601361058
20	33680	313.909171018776	5.1992941452714
20	34212	319.108465164047	1.6580699651101
20	34417	320.766535129157	2.1444363524529
20	34695	322.91097148161	5.6031566487007
20	35241	328.514128130311	1.5980787499844
20	35374	330.112206880295	2.0100442142919
20	35602	332.122251094587	2.8713717163962
20	35908	334.993622810983	2.1784155607861
20	36175	337.172038371769	1.9790893549528
20	36361	339.151127726722	0.53189344450733
20	36397	339.683021171229	0.41826957313923
20	36462	340.101290744368	0.95965043665346
20	36584	341.060941181021	2.6477459630102
20	36902	343.708687144031	0.065285673317605
20	36909	343.773972817349	0.034356127533061
20	36910	343.808328944882	0.81886374226833
20	37005	344.62719268715	0.4322291109689
20	37039	345.059421798119	4.7090441499502
20	37453	349.768465948069	1.4169654373373
20	37611	351.185431385406	1.2472161786432
20	37737	352.432647564049	0.29367405105039
20	37771	352.726321615099	2.6265745478179
20	38034	355.352896162917	1.07572401091
20	38151	356.428620173827	1.4387250453714
20	38333	357.867345219198	3.5826283546675
20	38664	361.449973573865	0.25659099283409
20	38697	361.706564566699	2.2966764101558
20	38947	364.003240976855	0.37000670262512
20	39020	364.37324767948	1.4545943039807
20	39150	365.827841983461	0.37036869883556
20	39201	366.198210682297	1.2381434921734
20	39307	367.43635417447	0.21464572352848
20	39335	367.650999897998	0.91295301334871
20	39407	368.563952911347	0.62905792678909
20	39479	369.193010838136	1.9427887556158
20	39675	371.135799593752	3.8010469305186
20	40056	374.936846524271	1.5066849980244
20	40233	376.443531522295	0.24657850041869
20	40275	376.690110022714	3.659530904459
20	40685	380.349640927173	2.4645714616925
20	40961	382.814212388865	0.90799619421018
20	41119	383.722208583075	1.8645559314372
20	41358	385.586764514512	1.2467242943768
20	41485	386.833488808889	0.75969787647824
20	41583	387.593186685367	0.26051579957693
20	41617	387.853702484944	0.90953850458988
20	41698	388.763240989534	1.2914952898725
20	41793	390.054736279407	1.6994376417052
20	42017	391.754173921112	0.20050770104724
20	42048	391.954681622159	0.53332280840442
20	42075	392.488004430563	1.3597231298602
20	42189	393.847727560423	1.1025274321087
20	42322	394.950254992532	3.1465478009974
20	42611	398.096802793529	4.183344094906
21	1931	17.603577258191	4.3603004869868
21	2371	21.963877745178	2.1906629243148
21	2633	24.154540669493	4.3155433965554
21	3071	28.470084066048	0.86941852936162
21	3153	29.33950259541	1.3106857773958
21	3272	30.650188372806	2.4836739167598
21	3548	33.133862289566	0.76273364178528
21	3634	33.896595931351	1.4211351674919
21	3755	35.317731098843	0.20991281720039
21	3774	35.527643916043	1.7344917139805
21	3918	37.262135630024	6.1680281711661
21	4551	43.43016380119	3.0262748905142
21	4914	46.456438691704	0.1531401655395
21	4936	46.609578857244	0.54109470165269
21	4993	47.150673558897	0.4729807706692
21	5075	47.623654329566	4.157619640529
21	5575	51.781273970095	1.9438685703837
21	5713	53.725142540479	2.0510672407774
21	5947	55.776209781256	1.6516281373587
21	6122	57.427837918615	0.60502316940747
21	6198	58.032861088022	1.6762932011537
21	6383	59.709154289176	0.083046597638375
21	6389	59.792200886814	3.9877768018651
21	6721	63.779977688679	2.1349156331845
21	6925	65.914893321863	2.9248235846735
21	7248	68.839716906536	1.6634669662961
21	7430	70.503183872832	1.2258191063488
21	7522	71.729002979181	2.782062098879
21	7840	74.51106507806	1.4639691645763
21	7985	75.975034242636	5.2168536376761
21	8552	81.191887880312	1.7000518453987
21	8767	82.891939725711	0.63977229249443
21	8838	83.531712018205	5.7039910950066
21	9420	89.235703113212	2.4256467847051
21	9609	91.661349897917	3.4537438539637
21	9990	95.115093751881	0.15374936202649
21	10003	95.268843113907	2.9436159186183
21	10334	98.212459032525	1.0782165364305
21	10404	99.290675568956	1.1626510510756
21	10527	100.453326620032	10.065941562987
21	11679	110.519268183019	4.7620138735475
21	12176	115.281282056566	0.47600847185009
21	12233	115.757290528416	2.1140999213159
21	12434	117.871390449732	1.2591970347693
21	12569	119.130587484501	3.3680889941948
21	12993	122.498676478696	4.3591428215685
21	13408	126.857819300264	1.644018761945
21	13591	128.501838062209	0.079931829355187
21	13597	128.581769891564	2.8644896587134
21	13863	131.446259550277	1.2558210290234
21	14001	132.7020805793	1.9837871016355
21	14217	134.685867680935	8.6645200601761
21	15171	143.350387741111	3.0135635454676
21	15493	146.363951286579	16.122466407035
21	17351	162.486417693614	4.5217491187104
21	17895	167.008166812324	1.0071757699209
21	17972	168.015342582245	2.7027415967858
21	18337	170.718084179031	5.2951998046923
21	18831	176.013283983723	0.69644028807385
21	18897	176.709724271797	0.031398573985188
21	18908	176.741122845782	2.7752630476084
21	19202	179.51638589339	0.49897215849047
21	19241	180.01535805188	4.4039595188235
21	19686	184.419317570703	1.5562639158142
21	19866	185.975581486517	4.0127885531734
21	20263	189.98837003969	0.43782322978004
21	20331	190.42619326947	0.0043358521891637
21	20332	190.430529121659	0.587934857176
21	20388	191.018463978835	0.18580849902746
21	20412	191.204272477862	0.16949988333659
21	20430	191.373772361199	1.9421263099099
21	20645	193.315898671109	1.315914671184
21	20756	194.631813342293	0.7589017478046
21	20855	195.390715090098	3.3824062106057
21	21210	198.773121300704	2.2366113285061
21	21393	201.00973262921	2.9852461437053
21	21738	203.994978772915	0.22687448337597
21	21769	204.221853256291	2.2273520680421
21	22014	206.449205324333	0.59949749201286
21	22065	207.048702816346	2.0028736639862
21	22262	209.051576480332	2.5127609096877
21	22502	211.56433739002	1.9077650104981
21	22736	213.472102400518	2.5930687655352
21	23097	216.065171166053	0.38814295687638
21	23126	216.453314122929	3.3521543730488
21	23531	219.805468495978	0.27992514682152
21	23561	220.0853936428	3.90426868085
21	23990	223.98966232365	0.053216778168565
21	23991	224.042879101819	2.7656940287517
21	24301	226.808573130571	2.5444414012729
21	24546	229.353014531844	8.7683207132728
21	25534	238.121335245117	4.0408216651767
21	25969	242.162156910294	0.61687725030362
21	26048	242.779034160598	0.00093190473095433
21	26049	242.779966065329	1.5494501889308
21	26253	244.32941625426	1.1095183647618
21	26364	245.438934619022	0.17422744375557
21	26382	245.613162062778	3.8790339644522
21	26823	249.49219602723	1.6628407215789
21	27006	251.155036748809	0.80933955067476
21	27087	251.964376299484	1.5466873350904
21	27274	253.511063634574	0.49229072574423
21	27330	254.003354360318	1.7261261590823
21	27466	255.7294805194	1.3516909720612
21	27586	257.081171491461	0.86717725012815
21	27677	257.948348741589	4.7274386733599
21	28172	262.675787414949	4.1972540905374
21	28598	266.873041505486	2.5773259731829
21	28864	269.450367478669	1.7083133186358
21	29037	271.158680797305	0.44992614548289
21	29067	271.608606942788	5.4772714673989
21	29678	277.085878410187	3.9802063623939
21	30102	281.066084772581	1.2194714835702
21	30210	282.285556256151	1.1224276342481
21	30326	283.407983890399	5.09368181887
21	30984	288.501665709269	1.8431459399112
21	31232	290.34481164918	2.697547633431
21	31492	293.042359282611	1.2805047669689
21	31643	294.32286404958	2.0961566063263
21	31895	296.419020655906	1.2596061987074
21	32035	297.678626854613	0.52370191777517
21	32099	298.202328772388	0.014116427346512
21	32105	298.216445199735	2.7886787267552
21	32369	301.00512392649	1.247160098382
21	32480	302.252284024872	2.4001211226212
21	32756	304.652405147493	0.80719890577014
21	32816	305.459604053263	3.0123149526547
21	33123	308.471919005918	0.17712672905208
21	33145	308.64904573497	1.9844653698987
21	33313	310.633511104869	1.7473797108879
21	33526	312.380890815757	0.12761636346365
21	33547	312.508507179221	0.84039218451959
21	33629	313.348899363741	1.1455518185201
21	33714	314.494451182261	0.98094855174262
21	33867	315.475399734004	0.55570297820409
21	33936	316.031102712208	0.44855952729158
21	33978	316.4796622395	4.7786092254311
21	34472	321.258271464931	0.73505235677977
21	34528	321.993323821711	0.66013551954068
21	34637	322.653459341252	2.0280420400771
21	34854	324.681501381329	4.6100734283498
21	35317	329.291574809679	1.8299299997923
21	35495	331.121504809471	3.0672698680622
21	35818	334.188774677533	5.4086004973694
21	36391	339.597375174902	0.86757526567604
21	36512	340.464950440578	0.052712775410522
21	36518	340.517663215989	2.289193759424
21	36791	342.806856975413	2.2010846030609
21	37036	345.007941578474	1.1468572506076
21	37133	346.154798829082	0.79240699906021
21	37246	346.947205828142	2.6424299060132
21	37424	349.589635734155	0.032857147322811
21	37430	349.622492881478	3.8705930690096
21	37894	353.493085950488	1.2981004040139
21	37995	354.791186354502	1.8917246009171
21	38171	356.682910955419	3.0118713961382
21	38474	359.694782351557	1.0238207721854
21	38593	360.718603123742	1.8566371255504
21	38779	362.575240249292	0.41164281533681
21	38816	362.986883064629	2.5444698537957
21	39122	365.531352918425	0.23469242022972
21	39144	365.766045338655	0.95230791447563
21	39228	366.718353253131	0.034781680472386
21	39229	366.753134933603	0.11005204762207
21	39240	366.863186981225	1.4402525506178
21	39385	368.303439531843	1.0908240443636
21	39501	369.394263576207	4.1574299248994
21	39914	373.551693501106	3.3662328647221
21	40296	376.917926365828	1.130970091751
21	40427	378.048896457579	2.3717333704058
21	40705	380.420629827985	0.74724440645135
21	40803	381.167874234436	4.7582587763821
21	41382	385.926133010818	4.1253149705746
21	41792	390.051447981393	1.5729093425241
21	42007	391.624357323917	6.4645631391287
21	42610	398.088920463046	0.14545001387152
21	42623	398.234370476918	2.9691613603153

