file 4212981 1614185360                                         
version 2
run Nonmonitoring-exponential-418-20210224-17:49:19-26961
attr configname Nonmonitoring-exponential
attr datetime 20210224-17:49:19
attr experiment Nonmonitoring-exponential
attr inifile aerocom.ini
attr iterationvars $0=20
attr iterationvarsf 20-
attr measurement $0=20
attr network Aerocom
attr processid 26961
attr repetition 18
attr replication #18
attr resultdir results
attr runnumber 418
attr seedset 18
param **.t 2s
param **.k 20ms
param **.X 0.05s
param **.m 1s
param **.tDistribution "\"exponential\""
param **.operationMode 1
param **.s "70 byte"
param **.dimPoolMax 10000
param **.dimPoolMin 8000
param **.nDL 16
param **.nA 1
param **.DLMaxCapacity 0
param **.trasmitting false

vector 0 Aerocom.aircraft[0].packetGenerator arrivalTime:vector ETV
attr "" ""
attr source computeArrivalTime
vector 1 Aerocom.aircraft[0].linkSelector waitingTime:vector ETV
attr "" ""
attr source computeWaitingTime
vector 2 Aerocom.aircraft[0].linkSelector queueLength:vector ETV
attr "" ""
attr source computeQueueLength
vector 3 Aerocom.aircraft[0].dataLink[14] actualCapacity:vector ETV
attr "" ""
attr source computeActualCapacity
vector 4 Aerocom.aircraft[0].linkSelector serviceTime:vector ETV
attr "" ""
attr source computeServiceTime
vector 5 Aerocom.aircraft[0].linkSelector responseTime:vector ETV
attr "" ""
attr source computeResponseTime
vector 6 Aerocom.aircraft[0].dataLink[4] tDistribution:vector ETV
attr "" ""
attr source computeTDistribution
vector 7 Aerocom.aircraft[0].dataLink[2] tDistribution:vector ETV
attr "" ""
attr source computeTDistribution
vector 8 Aerocom.aircraft[0].dataLink[14] tDistribution:vector ETV
attr "" ""
attr source computeTDistribution
vector 9 Aerocom.aircraft[0].dataLink[10] tDistribution:vector ETV
attr "" ""
attr source computeTDistribution
vector 10 Aerocom.aircraft[0].dataLink[13] tDistribution:vector ETV
attr "" ""
attr source computeTDistribution
vector 11 Aerocom.aircraft[0].dataLink[3] tDistribution:vector ETV
attr "" ""
attr source computeTDistribution
vector 12 Aerocom.aircraft[0].dataLink[1] tDistribution:vector ETV
attr "" ""
attr source computeTDistribution
vector 13 Aerocom.aircraft[0].dataLink[7] tDistribution:vector ETV
attr "" ""
attr source computeTDistribution
vector 14 Aerocom.aircraft[0].dataLink[9] tDistribution:vector ETV
attr "" ""
attr source computeTDistribution
vector 15 Aerocom.aircraft[0].dataLink[5] tDistribution:vector ETV
attr "" ""
attr source computeTDistribution
vector 16 Aerocom.aircraft[0].dataLink[6] tDistribution:vector ETV
attr "" ""
attr source computeTDistribution
vector 17 Aerocom.aircraft[0].dataLink[8] tDistribution:vector ETV
attr "" ""
attr source computeTDistribution
vector 18 Aerocom.aircraft[0].dataLink[15] tDistribution:vector ETV
attr "" ""
attr source computeTDistribution
vector 19 Aerocom.aircraft[0].dataLink[12] tDistribution:vector ETV
attr "" ""
attr source computeTDistribution
vector 20 Aerocom.aircraft[0].dataLink[11] tDistribution:vector ETV
attr "" ""
attr source computeTDistribution
vector 21 Aerocom.aircraft[0].dataLink[0] tDistribution:vector ETV
attr "" ""
attr source computeTDistribution
0	3134 766106 2583 102686 10.024123001389 399.989820208471 19396 5.720056e-06 0.25062681162 390.01432716656 15.652040048074
1	769240 613083 2584 102687 10.024123001389 399.989820208471 19396 0 0.046401214567 48.836611692774 0.51359527680132
2	1382323 516184 2584 102687 10.024123001389 399.989820208471 19396 0 5 2424 3744
3	1898507 574372 2584 102687 10.024123001389 399.989820208471 19396 8009 9987 174023788 1565768702758
4	2472879 843393 2584 102687 10.024123001389 399.989820208471 19396 0.007009111845399 0.0087401673117743 151.75473250015 1.1907034486547
5	3316272 766260 2587 102688 10.03191896976 399.997637070559 19396 0.007009111845 0.054999666846 200.59134419286 2.4746625608109
6	4082532 8346 2633 102282 10.154799016443 398.134694473829 204 0.013090085536955 12.443977421959 391.15910213809 1480.7110178899
7	4090878 8389 2685 102614 10.385694446458 399.637212680033 205 0.0045499638514104 14.228966976952 394.39037536379 1598.8191595853
8	4099267 8151 2690 102563 10.399272029674 399.388420049164 199 0.0029948903201605 8.9353881409166 394.06605022023 1326.3368167852
9	4107418 7979 2714 102105 10.493779993544 397.429395375989 195 0.036633129485923 13.891655960883 390.0744835507 1588.1359213264
10	4115397 8996 2844 102665 11.006490490172 399.855675857021 214 0.0021261643177236 8.7817230786032 390.47644238032 1369.5203494893
11	4124393 8300 2989 101805 11.542988758603 396.378055919919 198 0.019343252923559 15.377401730309 390.73312273963 1523.1220433298
12	4132693 8006 3067 102422 11.811549039068 398.859911812546 191 0.0032875847244715 10.165567595413 390.3450892669 1547.0480731601
13	4140699 8263 3124 101649 11.996981447654 395.764987678329 197 0.0089510818941697 10.884395304072 389.62381467642 1507.848662686
14	4148962 6794 3173 101987 12.205295827395 397.041475623467 162 0.0061707557568172 12.128511347121 388.40354057739 1882.9786068234
15	4155756 7002 3225 102537 12.343648612648 399.264468609568 167 0.017489574959529 17.250558191251 387.81118820324 2012.8735785768
16	4162758 8956 3236 102509 12.407052188234 399.157047788675 213 0.0002721584235952 11.365145904251 394.02318724398 1586.3532492901
17	4171714 8521 3779 100992 14.601568753633 393.213948622675 203 0.015180109924716 11.375898768361 386.98843534358 1507.2374465703
18	4180235 8635 3912 102430 14.954578776798 398.888746255187 205 0.0070043446583261 9.8818531959676 385.70802342553 1372.5448728705
19	4188870 8408 3937 101545 15.067412952406 395.384939740708 200 0.0050726164077998 9.5030758234018 385.47197619054 1558.4986746642
20	4197278 8029 4105 101290 15.792661741865 394.445808127145 192 0.0072561614718952 10.46660205438 385.45123367201 1470.9617921705
21	4205307 7673 4152 102319 15.92839971335 398.428491272921 183 0.016496635333275 21.264621994282 385.00261225583 1752.5694582982

