file 4226910 1614185364                                         
version 2
run Nonmonitoring-exponential-445-20210224-17:49:23-26986
attr configname Nonmonitoring-exponential
attr datetime 20210224-17:49:23
attr experiment Nonmonitoring-exponential
attr inifile aerocom.ini
attr iterationvars $0=20
attr iterationvarsf 20-
attr measurement $0=20
attr network Aerocom
attr processid 26986
attr repetition 45
attr replication #45
attr resultdir results
attr runnumber 445
attr seedset 45
param **.t 2s
param **.k 20ms
param **.X 0.05s
param **.m 1s
param **.tDistribution "\"exponential\""
param **.operationMode 1
param **.s "70 byte"
param **.dimPoolMax 10000
param **.dimPoolMin 8000
param **.nDL 16
param **.nA 1
param **.DLMaxCapacity 0
param **.trasmitting false

vector 0 Aerocom.aircraft[0].dataLink[5] tDistribution:vector ETV
attr "" ""
attr source computeTDistribution
vector 1 Aerocom.aircraft[0].dataLink[6] tDistribution:vector ETV
attr "" ""
attr source computeTDistribution
vector 2 Aerocom.aircraft[0].dataLink[4] tDistribution:vector ETV
attr "" ""
attr source computeTDistribution
vector 3 Aerocom.aircraft[0].packetGenerator arrivalTime:vector ETV
attr "" ""
attr source computeArrivalTime
vector 4 Aerocom.aircraft[0].linkSelector waitingTime:vector ETV
attr "" ""
attr source computeWaitingTime
vector 5 Aerocom.aircraft[0].linkSelector queueLength:vector ETV
attr "" ""
attr source computeQueueLength
vector 6 Aerocom.aircraft[0].dataLink[9] actualCapacity:vector ETV
attr "" ""
attr source computeActualCapacity
vector 7 Aerocom.aircraft[0].linkSelector serviceTime:vector ETV
attr "" ""
attr source computeServiceTime
vector 8 Aerocom.aircraft[0].linkSelector responseTime:vector ETV
attr "" ""
attr source computeResponseTime
vector 9 Aerocom.aircraft[0].dataLink[2] tDistribution:vector ETV
attr "" ""
attr source computeTDistribution
vector 10 Aerocom.aircraft[0].dataLink[1] tDistribution:vector ETV
attr "" ""
attr source computeTDistribution
vector 11 Aerocom.aircraft[0].dataLink[9] tDistribution:vector ETV
attr "" ""
attr source computeTDistribution
vector 12 Aerocom.aircraft[0].dataLink[13] tDistribution:vector ETV
attr "" ""
attr source computeTDistribution
vector 13 Aerocom.aircraft[0].dataLink[8] tDistribution:vector ETV
attr "" ""
attr source computeTDistribution
vector 14 Aerocom.aircraft[0].dataLink[14] tDistribution:vector ETV
attr "" ""
attr source computeTDistribution
vector 15 Aerocom.aircraft[0].dataLink[10] tDistribution:vector ETV
attr "" ""
attr source computeTDistribution
vector 16 Aerocom.aircraft[0].dataLink[0] tDistribution:vector ETV
attr "" ""
attr source computeTDistribution
vector 17 Aerocom.aircraft[0].dataLink[7] tDistribution:vector ETV
attr "" ""
attr source computeTDistribution
vector 18 Aerocom.aircraft[0].dataLink[15] tDistribution:vector ETV
attr "" ""
attr source computeTDistribution
vector 19 Aerocom.aircraft[0].dataLink[3] tDistribution:vector ETV
attr "" ""
attr source computeTDistribution
vector 20 Aerocom.aircraft[0].dataLink[12] tDistribution:vector ETV
attr "" ""
attr source computeTDistribution
vector 21 Aerocom.aircraft[0].dataLink[11] tDistribution:vector ETV
attr "" ""
attr source computeTDistribution
0	3133 7021 2365 102435 10.00060824907 398.405776301988 172 0.010955134436052 16.14811677184 392.28249311422 1770.3537168647
1	10154 8490 2366 102685 10.002353834946 399.590524076893 207 0.020492236653366 11.216420969475 390.37777736367 1358.0445238269
2	18644 8059 2367 100685 10.005784203854 391.038308529348 197 0.00010623925339245 13.397890682395 394.43041500789 1534.1541171512
3	26703 769024 2368 102771 10.018625790335 399.98643104745 19471 4.12445e-07 0.191858982788 389.98987985766 15.873857765206
4	795727 616754 2369 102773 10.018625790335 399.99242437659 19470 0 0.048935893647 50.10506289445 0.52589226159307
5	1412481 518132 2369 102773 10.018625790335 399.99242437659 19470 0 5 2515 3905
6	1930613 576542 2369 102773 10.018625790335 399.99242437659 19470 8003 9987 174379481 1566225827861
7	2507155 846568 2369 102773 10.018625790335 399.99242437659 19470 0.007009111845399 0.0087467199800075 152.60478751355 1.1995114679576
8	3353723 769138 2370 102773 10.026581239818 399.99242437659 19469 0.007009111845 0.057374712212 202.68790131939 2.514753869538
9	4122861 7711 2401 102612 10.157763025261 399.156379502595 188 0.0084099477252497 9.6828859906996 392.15759924394 1563.2324023263
10	4130572 8376 2420 102277 10.234807286895 397.751936038788 200 0.011102480884181 11.097933895057 390.12501427537 1407.4549349267
11	4138948 9569 2468 102101 10.36944499676 396.97160265921 228 3.112969931981e-05 13.109305997467 399.71146365992 1480.1654877383
12	4148517 7092 2719 101716 11.262084419017 395.285872576373 169 0.020542944566777 13.143162624053 389.22944328649 1918.2639991623
13	4155609 7420 2730 101585 11.29725521581 394.728063638327 177 0.012300311611636 12.044721163953 391.14009976717 1819.3033693165
14	4163029 8076 2739 102110 11.319073047641 397.003452809118 193 5.6857323999081e-06 7.7710859902321 389.07308703366 1355.9371087528
15	4171105 9110 2778 102743 11.457485836964 399.946735883001 217 0.017011965899627 8.3718298892023 388.94675065961 1266.7022442551
16	4180215 7912 2879 102404 11.840142356618 398.279042881425 189 0.0025792349939203 9.8292954758524 388.23751507589 1543.2910504901
17	4188127 8184 3058 102674 12.433983592898 399.47625346908 195 0.0091748987808211 14.192621368786 388.06251537711 1567.2246483593
18	4196311 7375 3094 101073 12.641240922591 392.530822045471 176 0.0065011868783595 12.584685122212 388.23532108654 1654.7120393953
19	4203686 8719 3142 102052 12.930753701993 396.777939041265 208 0.0034037406390098 11.712394906227 389.08996512411 1471.5065758767
20	4212405 7284 3393 102060 13.943678013973 396.882767841441 174 0.0039215553213416 15.311980447493 386.51038324249 1745.6236426751
21	4219689 7220 3646 102233 14.897046058161 397.520401383541 172 0.01546370219765 10.520491226597 385.41261356135 1606.3113933911

