version 2
run Nonmonitoring-exponential-596-20210224-17:49:34-27108
attr configname Nonmonitoring-exponential
attr datetime 20210224-17:49:34
attr experiment Nonmonitoring-exponential
attr inifile aerocom.ini
attr iterationvars $0=50
attr iterationvarsf 50-
attr measurement $0=50
attr network Aerocom
attr processid 27108
attr repetition 96
attr replication #96
attr resultdir results
attr runnumber 596
attr seedset 96
param **.t 2s
param **.k 50ms
param **.X 0.05s
param **.m 1s
param **.tDistribution "\"exponential\""
param **.operationMode 1
param **.s "70 byte"
param **.dimPoolMax 10000
param **.dimPoolMin 8000
param **.nDL 16
param **.nA 1
param **.DLMaxCapacity 0
param **.trasmitting false

vector 0 Aerocom.aircraft[0].dataLink[6] tDistribution:vector ETV
attr "" ""
attr source computeTDistribution
vector 1 Aerocom.aircraft[0].packetGenerator arrivalTime:vector ETV
attr "" ""
attr source computeArrivalTime
vector 2 Aerocom.aircraft[0].linkSelector waitingTime:vector ETV
attr "" ""
attr source computeWaitingTime
vector 3 Aerocom.aircraft[0].linkSelector queueLength:vector ETV
attr "" ""
attr source computeQueueLength
vector 4 Aerocom.aircraft[0].dataLink[11] actualCapacity:vector ETV
attr "" ""
attr source computeActualCapacity
vector 5 Aerocom.aircraft[0].linkSelector serviceTime:vector ETV
attr "" ""
attr source computeServiceTime
vector 6 Aerocom.aircraft[0].linkSelector responseTime:vector ETV
attr "" ""
attr source computeResponseTime
vector 7 Aerocom.aircraft[0].dataLink[7] tDistribution:vector ETV
attr "" ""
attr source computeTDistribution
vector 8 Aerocom.aircraft[0].dataLink[5] tDistribution:vector ETV
attr "" ""
attr source computeTDistribution
vector 9 Aerocom.aircraft[0].dataLink[15] tDistribution:vector ETV
attr "" ""
attr source computeTDistribution
vector 10 Aerocom.aircraft[0].dataLink[13] tDistribution:vector ETV
attr "" ""
attr source computeTDistribution
vector 11 Aerocom.aircraft[0].dataLink[10] tDistribution:vector ETV
attr "" ""
attr source computeTDistribution
vector 12 Aerocom.aircraft[0].dataLink[8] tDistribution:vector ETV
attr "" ""
attr source computeTDistribution
vector 13 Aerocom.aircraft[0].dataLink[1] tDistribution:vector ETV
attr "" ""
attr source computeTDistribution
vector 14 Aerocom.aircraft[0].dataLink[0] tDistribution:vector ETV
attr "" ""
attr source computeTDistribution
vector 15 Aerocom.aircraft[0].dataLink[3] tDistribution:vector ETV
attr "" ""
attr source computeTDistribution
vector 16 Aerocom.aircraft[0].dataLink[2] tDistribution:vector ETV
attr "" ""
attr source computeTDistribution
vector 17 Aerocom.aircraft[0].dataLink[4] tDistribution:vector ETV
attr "" ""
attr source computeTDistribution
vector 18 Aerocom.aircraft[0].dataLink[9] tDistribution:vector ETV
attr "" ""
attr source computeTDistribution
vector 19 Aerocom.aircraft[0].dataLink[14] tDistribution:vector ETV
attr "" ""
attr source computeTDistribution
vector 20 Aerocom.aircraft[0].dataLink[11] tDistribution:vector ETV
attr "" ""
attr source computeTDistribution
vector 21 Aerocom.aircraft[0].dataLink[12] tDistribution:vector ETV
attr "" ""
attr source computeTDistribution
0	1140	10.00561325092	2.423561038746
0	1382	12.429174289666	0.83141437019894
0	1459	13.260588659865	2.2076760806646
0	1723	15.46826474053	1.5856097522458
0	1868	17.053874492776	1.3572407181284
0	1971	18.411115210904	0.15812613815225
0	1988	18.569241349056	0.43810481088123
0	2051	19.007346159937	1.3145214046193
0	2173	20.321867564556	0.23807017416878
0	2217	20.559937738725	2.1794575796319
0	2427	22.739395318357	6.4849071076432
0	3177	29.224302426	4.9957266035218
0	3686	34.220029029522	1.4406993462495
0	3844	35.660728375771	0.626201108747
0	3922	36.286929484518	4.85832582977
0	4368	41.145255314288	2.1287104805509
0	4605	43.273965794839	0.30175408306645
0	4657	43.575719877905	1.8104670343726
0	4848	45.386186912278	0.042528725705464
0	4849	45.428715637983	0.64991313202317
0	4927	46.078628770006	1.4778049100822
0	5124	47.556433680088	0.8974719600496
0	5218	48.453905640138	0.34429776111818
0	5252	48.798203401256	3.9642761557365
0	5669	52.762479556992	0.12344642149543
0	5677	52.885925978487	1.0378706683899
0	5788	53.923796646877	0.11446654579799
0	5805	54.038263192675	3.997668524645
0	6210	58.03593171732	0.86081859860747
0	6316	58.896750315927	1.2450127083054
0	6457	60.141763024232	2.1321161504383
0	6687	62.27387917467	0.053252741927796
0	6694	62.327131916598	0.473268105047
0	6738	62.800400021645	0.61585665628937
0	6802	63.416256677934	10.176799659209
0	7938	73.593056337143	1.6536824598517
0	8104	75.246738796995	4.125523902386
0	8551	79.372262699381	0.20500797530237
0	8576	79.577270674683	2.5601618381692
0	8905	82.137432512852	1.2784015914874
0	9084	83.415834104339	2.2448968926808
0	9308	85.66073099702	3.5333937151484
0	9640	89.194124712168	1.5555048392425
0	9805	90.749629551411	2.2050168407062
0	9988	92.954646392117	1.2014693055274
0	10148	94.156115697644	4.0540094466793
0	10510	98.210125144323	1.1036062654977
0	10676	99.313731409821	0.56247114729817
0	10719	99.876202557119	2.3182483518686
0	10945	102.194450908988	2.3016031432397
0	11204	104.496054052228	0.02087205715618
0	11205	104.516926109384	5.7005243527156
0	11761	110.2174504621	1.9718024222486
0	11977	112.189252884349	0.76400888019293
0	12058	112.953261764542	5.9736929376723
0	12686	118.926954702214	1.4557535003671
0	12819	120.382708202581	4.4079676067099
0	13351	124.790675809291	3.5729497350867
0	13693	128.363625544378	1.5056771853179
0	13850	129.869302729696	0.094760378795149
0	13860	129.964063108491	0.37504691105658
0	13894	130.339110019548	6.452891506615
0	14617	136.792001526163	0.48881422402087
0	14654	137.280815750184	0.50782622260463
0	14675	137.788641972789	2.8023575232274
0	14923	140.590999496016	3.4057306436889
0	15229	143.996730139705	0.0069345119149275
0	15230	144.00366465162	2.2843153568884
0	15477	146.287980008508	2.0324796231838
0	15677	148.320459631692	0.97843761236826
0	15753	149.29889724406	0.56118109184852
0	15801	149.860078335909	0.84650426268375
0	15911	150.706582598593	0.81945219003023
0	15995	151.526034788623	5.8185005350784
0	16546	157.344535323701	0.71366194000786
0	16615	158.058197263709	0.28376180224203
0	16638	158.341959065951	0.59375327922904
0	16718	158.93571234518	2.5186985476104
0	17037	161.45441089279	3.0765009799291
0	17341	164.530911872719	2.4771021693495
0	17598	167.008014042068	7.2485707254704
0	18399	174.256584767538	6.9714363684026
0	19207	181.228021135941	0.88663928379356
0	19329	182.114660419735	1.509602561025
0	19463	183.62426298076	0.4939669760451
0	19507	184.118229956805	1.3857952791993
0	19628	185.504025236004	7.4157167611407
0	20511	192.919741997145	0.62844286324276
0	20613	193.548184860388	0.79398194602662
0	20714	194.342166806415	0.35079743885627
0	20769	194.692964245271	0.45254431922529
0	20799	195.145508564496	0.56527617663782
0	20847	195.710784741134	3.578412030091
0	21204	199.289196771225	5.179662586907
0	21662	204.468859358132	0.96333616927661
0	21804	205.432195527409	2.8331111689872
0	22126	208.265306696396	1.0902476254428
0	22212	209.355554321839	3.037372683774
0	22535	212.392927005613	1.1560208616212
0	22653	213.548947867234	4.1268176766282
0	23077	217.675765543862	1.2276766307184
0	23207	218.90344217458	0.45941551815066
0	23260	219.362857692731	4.6126191640369
0	23638	223.975476856768	2.4451216116385
0	23941	226.420598468406	2.5307682704369
0	24181	228.951366738843	1.7114680190076
0	24364	230.662834757851	0.40415001790176
0	24425	231.066984775753	3.2435783448768
0	24824	234.31056312063	2.8916423890681
0	25128	237.202205509698	7.2793052879234
0	25865	244.481510797621	5.0749430756877
0	26381	249.556453873309	0.94223830100173
0	26465	250.498692174311	1.5542368292828
0	26678	252.052929003594	1.0870359186336
0	26820	253.139964922228	2.0227324597286
0	27007	255.162697381957	2.4727144918739
0	27304	257.635411873831	1.1593516592447
0	27430	258.794763533076	0.81036521093716
0	27521	259.605128744013	4.4295034431144
0	27931	264.034632187127	5.9055946754785
0	28637	269.940226862606	1.9814650565072
0	28827	271.921691919113	1.6342572439954
0	28987	273.555949163108	3.092355914433
0	29359	276.648305077541	0.017360400355021
0	29365	276.665665477896	0.24852856926469
0	29399	276.914194047161	2.1276282704665
0	29668	279.041822317628	0.86934874103222
0	29762	279.91117105866	2.120469617002
0	30021	282.031640675662	2.0783018416178
0	30273	284.10994251728	1.5326589519581
0	30420	285.642601469238	5.0832967146276
0	30908	290.725898183866	2.1093598791402
0	31158	292.835258063006	0.30613142082358
0	31202	293.14138948383	4.1059632253326
0	31689	297.247352709163	0.024522972680348
0	31690	297.271875681843	3.2427808673182
0	32001	300.514656549161	1.1725035837323
0	32116	301.687160132893	12.530713156276
0	33399	314.217873289169	1.4383033744728
0	33613	315.656176663642	1.6696586375028
0	33807	317.325835301145	2.2928398402101
0	34038	319.618675141355	0.023993497176133
0	34039	319.642668638531	5.9558514905979
0	34684	325.598520129129	1.173855603354
0	34821	326.772375732483	1.8083084927024
0	35021	328.580684225185	0.381093198622
0	35062	328.961777423807	0.9253937240889
0	35141	329.887171147896	2.5704516432192
0	35417	332.457622791115	5.8858151307788
0	36040	338.343437921894	3.8784430641509
0	36501	342.221880986045	4.1870383004113
0	36859	346.408919286456	0.080686180553292
0	36880	346.489605467009	0.026628096810198
0	36882	346.516233563819	0.31217798895046
0	36904	346.828411552769	0.1530742166117
0	36917	346.981485769381	0.71612406574018
0	36982	347.697609835121	3.3640949475811
0	37383	351.061704782702	0.67272492376122
0	37465	351.734429706463	2.8136696831846
0	37838	354.548099389648	0.59042611271023
0	37900	355.138525502358	5.3740961518589
0	38585	360.512621654217	1.2056869586315
0	38695	361.718308612848	0.49199019519387
0	38754	362.210298808042	3.8526663507724
0	39082	366.062965158814	1.8592681202789
0	39234	367.922233279093	1.0677137142619
0	39365	368.989946993355	6.3732449941042
0	39976	375.363191987459	2.6585168235935
0	40213	378.021708811052	0.22440117358292
0	40232	378.246109984635	0.48428323224816
0	40283	378.730393216883	0.54384150305666
0	40346	379.27423471994	0.16304251142692
0	40378	379.437277231367	1.8249084088847
0	40558	381.262185640252	1.673733358107
0	40690	382.935918998359	2.4751293207941
0	40930	385.411048319153	0.1422672534584
0	40962	385.553315572611	0.3296154736455
0	40998	385.882931046256	2.5132394905829
0	41191	388.396170536839	1.1213045101267
0	41348	389.517475046966	2.7364578287716
0	41693	392.253932875738	0.82650079270179
0	41785	393.08043366844	4.9777975405837
0	42244	398.058231209024	2.551474956619
1	1141	10.112140837668	0.046240972539
1	1146	10.158381810207	0.039394773806
1	1151	10.197776584013	0.059242756215
1	1156	10.257019340228	0.142195232396
1	1162	10.399214572624	0.00800001619
1	1167	10.407214588814	0.108712304768
1	1172	10.515926893582	0.083769233088
1	1177	10.59969612667	0.079192531307
1	1185	10.678888657977	0.012777018847
1	1190	10.691665676824	0.045033135415
1	1195	10.736698812239	0.052829220011
1	1203	10.78952803225	0.116958417576
1	1210	10.906486449826	0.001628214773
1	1212	10.908114664599	0.028607275541
1	1220	10.93672194014	0.016462262425
1	1226	10.953184202565	0.0132491229
1	1231	10.966433325465	0.174929028282
1	1237	11.141362353747	0.049642805505
1	1242	11.191005159252	0.037339349824
1	1247	11.228344509076	0.042279918984
1	1252	11.27062442806	0.002701591467
1	1254	11.273326019527	0.00590363707
1	1259	11.279229656597	0.008361201049
1	1264	11.287590857646	0.155792527588
1	1274	11.443383385234	0.036118078159
1	1280	11.479501463393	0.019316689869
1	1285	11.498818153262	0.003413195396
1	1287	11.502231348658	0.112537939392
1	1295	11.61476928805	0.117522562269
1	1301	11.732291850319	0.066403091285
1	1308	11.798694941604	0.0530259666
1	1314	11.851720908204	0.125097331511
1	1319	11.976818239715	0.009955400118
1	1324	11.986773639833	0.061467022804
1	1329	12.048240662637	0.032409019288
1	1334	12.080649681925	0.16114076048
1	1339	12.241790442405	0.012985426369
1	1344	12.254775868774	0.002141373508
1	1346	12.256917242282	0.002985028913
1	1348	12.259902271195	0.086519958582
1	1360	12.346422229777	0.020269518869
1	1365	12.366691748646	0.016199231252
1	1370	12.382890979898	0.037584416613
1	1375	12.420475396511	0.002586545063
1	1377	12.423061941574	0.040908161418
1	1386	12.463970102992	0.112319683026
1	1391	12.576289786018	0.00578198807
1	1393	12.582071774088	0.000676881131
1	1395	12.582748655219	0.002831582788
1	1400	12.585580238007	0.060373154153
1	1411	12.64595339216	0.004859434049
1	1413	12.650812826209	0.028041031047
1	1421	12.678853857256	0.005472644919
1	1423	12.684326502175	0.096923113051
1	1431	12.781249615226	0.066298822086
1	1436	12.847548437312	0.017094506373
1	1442	12.864642943685	0.354222338992
1	1451	13.218865282677	0.040472082646
1	1456	13.259337365323	0.014175370942
1	1463	13.273512736265	0.092332119548
1	1470	13.365844855813	0.007839629447
1	1475	13.37368448526	0.017408785783
1	1480	13.391093271043	0.111690746494
1	1486	13.502784017537	0.091156030601
1	1491	13.593940048138	0.133188001599
1	1497	13.727128049737	0.023447670104
1	1502	13.750575719841	0.088248642741
1	1507	13.838824362582	0.007124621018
1	1509	13.8459489836	0.019013213333
1	1517	13.864962196933	0.133139411768
1	1523	13.998101608701	0.010634714807
1	1529	14.008736323508	0.010905076257
1	1534	14.019641399765	0.025010977501
1	1539	14.044652377266	0.000619812602
1	1541	14.045272189868	0.107574747793
1	1549	14.152846937661	0.044646039635
1	1555	14.197492977296	0.023763726444
1	1561	14.22125670374	0.094694910054
1	1567	14.315951613794	0.024589658081
1	1573	14.340541271875	0.030490924984
1	1578	14.371032196859	0.00017002293
1	1580	14.371202219789	0.017988100297
1	1588	14.389190320086	0.042231453063
1	1593	14.431421773149	0.042703177986
1	1598	14.474124951135	0.0087479939
1	1603	14.482872945035	0.023265919429
1	1610	14.506138864464	0.006000978312
1	1612	14.512139842776	0.0203525203
1	1620	14.532492363076	0.175533408967
1	1625	14.708025772043	0.01297779058
1	1631	14.721003562623	0.225296256812
1	1637	14.946299819435	0.042716282421
1	1642	14.989016101856	0.032900270206
1	1648	15.021916372062	0.018544929205
1	1653	15.040461301267	0.087167896603
1	1660	15.12762919787	0.021935294965
1	1665	15.149564492835	0.005800182321
1	1667	15.155364675156	0.039351144945
1	1676	15.194715820101	0.009331767836
1	1681	15.204047587937	0.011808102842
1	1686	15.215855690779	0.007729273209
1	1691	15.223584963988	0.011254508379
1	1696	15.234839472367	0.011345837663
1	1701	15.24618531003	0.04137229247
1	1706	15.2875576025	0.103707302063
1	1713	15.391264904563	0.023119311409
1	1718	15.414384215972	0.081399432256
1	1725	15.495783648228	0.11097143279
1	1732	15.606755081018	0.044764147512
1	1737	15.65151922853	0.019796512869
1	1742	15.671315741399	0.001377464921
1	1744	15.67269320632	0.017301172614
1	1752	15.689994378934	0.063151640548
1	1757	15.753146019482	0.040169757424
1	1763	15.793315776906	0.026005284243
1	1768	15.819321061149	0.091902626813
1	1775	15.911223687962	0.064827641265
1	1780	15.976051329227	0.141367007289
1	1786	16.117418336516	0.103438524258
1	1791	16.220856860774	0.03790701554
1	1796	16.258763876314	0.055825706776
1	1802	16.31458958309	0.213315449415
1	1808	16.527905032505	0.006781355329
1	1810	16.534686387834	0.006611790152
1	1815	16.541298177986	0.07730203206
1	1824	16.618600210046	0.015075302514
1	1829	16.63367551256	0.001530606675
1	1831	16.635206119235	0.032278658405
1	1839	16.66748477764	0.160188396478
1	1847	16.827673174118	0.159245546935
1	1852	16.986918721053	0.015460668952
1	1857	17.002379390005	0.041523064673
1	1863	17.043902454678	0.050095563547
1	1869	17.093998018225	0.027060125016
1	1874	17.121058143241	0.078222219863
1	1880	17.199280363104	0.04303404919
1	1885	17.242314412294	0.13665960869
1	1892	17.378974020984	0.022812335878
1	1898	17.401786356862	0.055576817029
1	1903	17.457363173891	0.121957376272
1	1908	17.579320550163	0.135146236253
1	1913	17.714466786416	0.050223299349
1	1918	17.764690085765	0.105447739973
1	1925	17.870137825738	0.082434799105
1	1932	17.952572624843	0.008063957869
1	1937	17.960636582712	0.042328689063
1	1942	18.002965271775	0.060815125143
1	1949	18.063780396918	0.144541559003
1	1954	18.208321955921	0.036218807737
1	1959	18.244540763658	0.127862592255
1	1966	18.372403355913	0.157825387992
1	1973	18.530228743905	0.00537512591
1	1975	18.535603869815	0.008393241231
1	1980	18.543997111046	0.032972839636
1	1989	18.576969950682	0.020981428734
1	1994	18.597951379416	0.040171707328
1	1999	18.638123086744	0.014802070019
1	2004	18.652925156763	0.057619893407
1	2009	18.71054505017	0.052501535584
1	2015	18.763046585754	0.076207957843
1	2020	18.839254543597	0.033440577864
1	2025	18.872695121461	0.000930325985
1	2027	18.873625447446	0.003678012472
1	2029	18.877303459918	0.061141558585
1	2041	18.938445018503	0.058686048848
1	2046	18.997131067351	0.034317228749
1	2053	19.0314482961	0.00246814642
1	2055	19.03391644252	3.9340965e-05
1	2057	19.033955783485	0.001521155911
1	2059	19.035476939396	0.167939565433
1	2078	19.203416504829	0.075308834922
1	2083	19.278725339751	0.090575603495
1	2088	19.369300943246	0.096642429515
1	2093	19.465943372761	0.01231972372
1	2098	19.478263096481	0.01353285987
1	2103	19.491795956351	0.219186250271
1	2111	19.710982206622	0.03063165741
1	2116	19.741613864032	0.013745767711
1	2121	19.755359631743	0.118293634345
1	2126	19.873653266088	0.017752213624
1	2131	19.891405479712	0.028006402079
1	2136	19.919411881791	0.11176230661
1	2143	20.031174188401	0.001776403763
1	2145	20.032950592164	0.07320626926
1	2153	20.106156861424	0.010126340332
1	2158	20.116283201756	0.039536848492
1	2163	20.155820050248	0.104383915651
1	2168	20.260203965899	0.06999066305
1	2175	20.330194628949	0.002992127459
1	2177	20.333186756408	0.006358690453
1	2182	20.339545446861	0.043773645792
1	2190	20.383319092653	0.03152350988
1	2195	20.414842602533	0.020514431759
1	2200	20.435357034292	0.005717395497
1	2202	20.441074429789	0.103071315018
1	2212	20.544145744807	0.020702730658
1	2218	20.564848475465	0.030720203111
1	2223	20.595568678576	0.002342808847
1	2225	20.597911487423	0.07513851214
1	2233	20.673049999563	0.238460349045
1	2239	20.911510348608	0.000133709944
1	2241	20.911644058552	0.019691279296
1	2249	20.931335337848	0.002385995331
1	2251	20.933721333179	0.015115054346
1	2260	20.948836387525	0.087504065131
1	2267	21.036340452656	0.039036806445
1	2272	21.075377259101	0.067081168329
1	2277	21.14245842743	0.022911814087
1	2282	21.165370241517	0.027929905907
1	2287	21.193300147424	0.011301012292
1	2292	21.204601159716	0.118548349197
1	2297	21.323149508913	0.006577789153
1	2299	21.329727298066	0.066555294425
1	2307	21.396282592491	0.017280383904
1	2313	21.413562976395	0.089911507038
1	2318	21.503474483433	0.020942021735
1	2324	21.524416505168	0.086147275482
1	2329	21.61056378065	0.102424368429
1	2334	21.712988149079	0.127807166222
1	2341	21.840795315301	0.013626962903
1	2346	21.854422278204	0.001397879168
1	2348	21.855820157372	0.055200371244
1	2356	21.911020528616	0.00336953108
1	2358	21.914390059696	0.216505120872
1	2369	22.130895180568	0.005143334024
1	2371	22.136038514592	0.017806846184
1	2379	22.153845360776	0.025693091086
1	2384	22.179538451862	0.044547791737
1	2389	22.224086243599	0.016576073962
1	2394	22.240662317561	0.274714767436
1	2403	22.515377084997	0.062937385283
1	2410	22.57831447028	0.013674207032
1	2415	22.591988677312	0.098894447569
1	2421	22.690883124881	0.062826353027
1	2428	22.753709477908	0.041049308992
1	2433	22.7947587869	0.057710919042
1	2440	22.852469705942	0.003566203366
1	2442	22.856035909308	0.009277550375
1	2447	22.865313459683	0.002208281195
1	2449	22.867521740878	0.015949107453
1	2457	22.883470848331	0.032112834407
1	2466	22.915583682738	0.094698950141
1	2473	23.010282632879	0.045909096737
1	2478	23.056191729616	0.045986377745
1	2484	23.102178107361	0.058886110406
1	2489	23.161064217767	0.025297015306
1	2495	23.186361233073	0.061818141792
1	2500	23.248179374865	0.011647254422
1	2505	23.259826629287	0.002785799169
1	2507	23.262612428456	0.054272839334
1	2515	23.31688526779	0.030756386385
1	2520	23.347641654175	0.001130829104
1	2522	23.348772483279	0.029926946836
1	2530	23.378699430115	0.045128498054
1	2535	23.423827928169	0.010704810365
1	2540	23.434532738534	0.023321643397
1	2546	23.457854381931	0.003711811207
1	2548	23.461566193138	0.11797729839
1	2556	23.579543491528	0.070379536626
1	2561	23.649923028154	0.087607643133
1	2567	23.737530671287	0.060306564368
1	2575	23.797837235655	0.031367460475
1	2580	23.82920469613	0.090482335287
1	2585	23.919687031417	0.022645776812
1	2590	23.942332808229	0.039778852152
1	2595	23.982111660381	0.083045434258
1	2600	24.065157094639	0.021493277997
1	2605	24.086650372636	0.02991794361
1	2610	24.116568316246	0.032963010974
1	2615	24.14953132722	0.001530573065
1	2617	24.151061900285	0.065786165209
1	2625	24.216848065494	0.024545512618
1	2630	24.241393578112	0.077613249731
1	2636	24.319006827843	0.255304628844
1	2642	24.574311456687	0.058758209981
1	2647	24.633069666668	0.009258673708
1	2652	24.642328340376	0.005589452169
1	2654	24.647917792545	0.148564208928
1	2663	24.796482001473	0.041160829149
1	2668	24.837642830622	0.009046686449
1	2673	24.846689517071	0.028550031034
1	2678	24.875239548105	0.005376249212
1	2680	24.880615797317	0.001574008417
1	2682	24.882189805734	0.0026648027
1	2687	24.884854608434	0.016311136179
1	2695	24.901165744613	0.007136258734
1	2697	24.908302003347	0.019117364174
1	2708	24.927419367521	0.085650113393
1	2713	25.013069480914	0.078005935047
1	2718	25.091075415961	0.018998295536
1	2723	25.110073711497	0.042397537387
1	2729	25.152471248884	0.003050734316
1	2731	25.1555219832	0.0386631513
1	2739	25.1941851345	0.043564722804
1	2744	25.237749857304	0.002521361967
1	2746	25.240271219271	0.013809540704
1	2751	25.254080759975	0.048166260885
1	2760	25.30224702086	0.01010872235
1	2765	25.31235574321	0.066276212967
1	2770	25.378631956177	0.040363318335
1	2775	25.418995274512	0.002843269605
1	2777	25.421838544117	0.014413932396
1	2785	25.436252476513	0.082179812406
1	2791	25.518432288919	0.027968010784
1	2796	25.546400299703	0.10734495836
1	2801	25.653745258063	0.020829060371
1	2806	25.674574318434	0.030065073918
1	2812	25.704639392352	0.008157848608
1	2814	25.71279724096	0.050652709715
1	2822	25.763449950675	0.017200171047
1	2827	25.780650121722	0.002759921135
1	2829	25.783410042857	0.209016585316
1	2837	25.992426628173	0.007937838815
1	2839	26.000364466988	6.7233833e-05
1	2841	26.000431700821	0.008720597838
1	2849	26.009152298659	0.033243093062
1	2858	26.042395391721	0.032943716114
1	2863	26.075339107835	0.00288584672
1	2865	26.078224954555	0.034357220999
1	2873	26.112582175554	0.00194123588
1	2875	26.114523411434	0.171023584488
1	2883	26.285546995922	0.016432077824
1	2888	26.301979073746	0.060741067951
1	2894	26.362720141697	0.056138285917
1	2899	26.418858427614	0.038382032273
1	2905	26.457240459887	0.042010378169
1	2910	26.499250838056	0.018879458265
1	2915	26.518130296321	0.094291743316
1	2920	26.612422039637	0.071418782611
1	2925	26.683840822248	0.024668220525
1	2930	26.708509042773	0.031528640023
1	2935	26.740037682796	0.053108413667
1	2940	26.793146096463	0.009463026029
1	2945	26.802609122492	0.097737540563
1	2950	26.900346663055	0.021883250667
1	2956	26.922229913722	0.049529402596
1	2961	26.971759316318	0.045092049428
1	2966	27.016851365746	0.040015014018
1	2971	27.056866379764	0.034015939388
1	2976	27.090882319152	1.4350527e-05
1	2978	27.090896669679	0.036896694954
1	2986	27.127793364633	0.032862921299
1	2991	27.160656285932	0.081412411621
1	2997	27.242068697553	0.001463925183
1	2999	27.243532622736	0.055869163062
1	3007	27.299401785798	0.041121091628
1	3012	27.340522877426	0.011499819492
1	3017	27.352022696918	0.344180256681
1	3022	27.696202953599	0.053674629826
1	3027	27.749877583425	0.044352556686
1	3032	27.794230140111	0.025738142744
1	3037	27.819968282855	0.101904059727
1	3043	27.921872342582	0.001672278014
1	3045	27.923544620596	0.009182462366
1	3050	27.932727082962	0.058583017462
1	3059	27.991310100424	0.150892147437
1	3065	28.142202247861	0.03862106136
1	3070	28.180823309221	0.138138502251
1	3075	28.318961811472	0.071689769661
1	3080	28.390651581133	0.007678859509
1	3082	28.398330440642	0.077718867951
1	3090	28.476049308593	0.011489546433
1	3095	28.487538855026	0.015316138257
1	3100	28.502854993283	0.057926238469
1	3105	28.560781231752	0.034774879811
1	3111	28.595556111563	0.176414891912
1	3116	28.771971003475	0.035790210169
1	3121	28.807761213644	0.010903656725
1	3126	28.818664870369	0.007070323078
1	3128	28.825735193447	0.013474687936
1	3136	28.839209881383	0.032535133463
1	3141	28.871745014846	0.054866200376
1	3146	28.926611215222	0.011837382871
1	3151	28.938448598093	0.103209008772
1	3156	29.041657606865	0.046971348442
1	3161	29.088628955307	0.031220328052
1	3167	29.119849283359	0.00339279769
1	3169	29.123242081049	0.146133564736
1	3178	29.269375645785	0.009799540705
1	3183	29.27917518649	0.092944573369
1	3189	29.372119759859	0.069875280412
1	3194	29.441995040271	0.010678568705
1	3199	29.452673608976	0.030064486044
1	3204	29.48273809502	0.042209418813
1	3209	29.524947513833	0.007962697411
1	3211	29.532910211244	0.109320332011
1	3219	29.642230543255	0.064613132348
1	3225	29.706843675603	0.069977082219
1	3231	29.776820757822	0.005403444597
1	3233	29.782224202419	0.023891198699
1	3241	29.806115401118	0.094265543097
1	3246	29.900380944215	0.064117044333
1	3252	29.964497988548	0.02012564676
1	3257	29.984623635308	0.065291435019
1	3263	30.049915070327	0.021264143131
1	3269	30.071179213458	0.057302607575
1	3274	30.128481821033	0.040463586978
1	3279	30.168945408011	0.01092759762
1	3284	30.179873005631	0.014711054797
1	3289	30.194584060428	0.023990798411
1	3294	30.218574858839	0.061626615362
1	3299	30.280201474201	0.017675752111
1	3304	30.297877226312	0.066656738524
1	3309	30.364533964836	0.000212143563
1	3311	30.364746108399	0.156296718113
1	3319	30.521042826512	0.00884498682
1	3324	30.529887813332	0.084903737474
1	3329	30.614791550806	0.12876723056
1	3336	30.743558781366	0.002013125907
1	3338	30.745571907273	0.061369872255
1	3347	30.806941779528	0.025799024233
1	3353	30.832740803761	0.14522851507
1	3358	30.977969318831	0.060308857819
1	3363	31.03827817665	0.039594502562
1	3369	31.077872679212	0.00227418543
1	3371	31.080146864642	5.0589275e-05
1	3373	31.080197453917	0.109627507695
1	3384	31.189824961612	0.148927318609
1	3390	31.338752280221	0.135681142282
1	3397	31.474433422503	0.028660670896
1	3402	31.503094093399	0.013106806414
1	3407	31.516200899813	0.081731982589
1	3412	31.597932882402	0.029995341342
1	3418	31.627928223744	0.03332907775
1	3424	31.661257301494	0.040043924467
1	3429	31.701301225961	0.112048370839
1	3435	31.8133495968	0.209711759364
1	3443	32.023061356164	0.025615630711
1	3448	32.048676986875	0.089292143312
1	3455	32.137969130187	0.003846553349
1	3457	32.141815683536	0.03327611432
1	3465	32.175091797856	0.025589233112
1	3470	32.200681030968	0.036223456814
1	3475	32.236904487782	0.03461710429
1	3480	32.271521592072	0.048232152269
1	3485	32.319753744341	0.039721265768
1	3490	32.359475010109	0.157152939951
1	3496	32.51662795006	0.021971706512
1	3501	32.538599656572	0.008555825272
1	3506	32.547155481844	0.030463684683
1	3511	32.577619166527	0.03032161605
1	3516	32.607940782577	0.012381459579
1	3521	32.620322242156	0.157860634139
1	3530	32.778182876295	0.077610799365
1	3535	32.85579367566	0.240282337612
1	3542	33.096076013272	0.034280846806
1	3547	33.130356860078	0.077455621036
1	3552	33.207812481114	0.019898423671
1	3557	33.227710904785	0.026239579824
1	3563	33.253950484609	0.03944129769
1	3568	33.293391782299	0.025823533789
1	3573	33.319215316088	0.049949404634
1	3578	33.369164720722	0.036676543961
1	3583	33.405841264683	0.04655065265
1	3588	33.452391917333	0.021423326099
1	3593	33.473815243432	0.019661668176
1	3598	33.493476911608	0.010813108838
1	3603	33.504290020446	0.095504459127
1	3609	33.599794479573	0.026691312983
1	3614	33.626485792556	0.059101288458
1	3619	33.685587081014	0.013923323216
1	3624	33.69951040423	0.018062170646
1	3629	33.717572574876	0.081616040577
1	3635	33.799188615453	0.042553232316
1	3641	33.841741847769	0.082593783864
1	3647	33.924335631633	0.072766368874
1	3652	33.997102000507	0.011243014368
1	3658	34.008345014875	0.036610233749
1	3663	34.044955248624	0.060938192302
1	3668	34.105893440926	0.04465562398
1	3674	34.150549064906	6.3898377e-05
1	3676	34.150612963283	0.064840619287
1	3684	34.21545358257	0.051365533077
1	3691	34.266819115647	0.040547204727
1	3697	34.307366320374	0.030833926439
1	3703	34.338200246813	0.111550453605
1	3708	34.449750700418	0.077752087891
1	3713	34.527502788309	0.019243612123
1	3718	34.546746400432	0.036719488149
1	3723	34.583465888581	0.023150401448
1	3728	34.606616290029	0.063703629312
1	3734	34.670319919341	0.002642116825
1	3736	34.672962036166	0.109854957443
1	3744	34.782816993609	0.074110542831
1	3749	34.85692753644	0.136523852024
1	3755	34.993451388464	0.013677824935
1	3760	35.007129213399	0.016340071298
1	3765	35.023469284697	0.007058215498
1	3767	35.030527500195	0.051082138063
1	3775	35.081609638258	0.031687046466
1	3780	35.113296684724	0.037497734887
1	3785	35.150794419611	0.051706543348
1	3790	35.202500962959	0.038068858055
1	3795	35.240569821014	0.062402377518
1	3801	35.302972198532	0.061326219979
1	3806	35.364298418511	0.021133402102
1	3811	35.385431820613	0.003623606915
1	3813	35.389055427528	0.004446053499
1	3815	35.393501481027	0.145929957972
1	3827	35.539431438999	0.013912434791
1	3832	35.55334387379	0.069886288234
1	3839	35.623230162024	0.084778243644
1	3845	35.708008405668	0.036555281019
1	3851	35.744563686687	0.01025999394
1	3856	35.754823680627	0.128018491241
1	3862	35.882842171868	0.013179435814
1	3867	35.896021607682	0.030561926211
1	3872	35.926583533893	0.060967677337
1	3880	35.98755121123	0.026428265667
1	3885	36.013979476897	0.047950767918
1	3890	36.061930244815	0.069873704532
1	3895	36.131803949347	0.001859568811
1	3897	36.133663518158	0.009460323866
1	3903	36.143123842024	0.030593877278
1	3912	36.173717719302	0.051884188527
1	3917	36.225601907829	0.131710914966
1	3925	36.357312822795	0.030514522343
1	3930	36.387827345138	0.009024682536
1	3935	36.396852027674	0.176633741595
1	3943	36.573485769269	0.046668872237
1	3949	36.620154641506	0.021982614178
1	3955	36.642137255684	0.183065226299
1	3961	36.825202481983	0.133521317845
1	3968	36.958723799828	0.034802294157
1	3973	36.993526093985	0.007895333013
1	3975	37.001421426998	0.000396872673
1	3980	37.001818299671	0.001318895905
1	3982	37.003137195576	0.021813973405
1	3991	37.024951168981	0.00092467765
1	3993	37.025875846631	0.119433538148
1	4006	37.145309384779	0.003794157766
1	4008	37.149103542545	0.017932469012
1	4016	37.167036011557	0.164178767866
1	4022	37.331214779423	0.022770978572
1	4027	37.353985757995	0.024354607626
1	4032	37.378340365621	0.096078064818
1	4037	37.474418430439	0.124929637384
1	4042	37.599348067823	0.054626034685
1	4047	37.653974102508	0.270061401594
1	4056	37.924035504102	0.01244078105
1	4061	37.936476285152	0.069249164878
1	4066	38.00572545003	0.065633785506
1	4072	38.071359235536	0.038062950527
1	4077	38.109422186063	0.011827511656
1	4082	38.121249697719	0.066657000322
1	4089	38.187906698041	0.000183136582
1	4091	38.188089834623	0.088859321121
1	4099	38.276949155744	0.079845898205
1	4104	38.356795053949	0.019873469238
1	4109	38.376668523187	0.071439711766
1	4115	38.448108234953	0.127691066045
1	4122	38.575799300998	0.054775385774
1	4128	38.630574686772	0.003750310455
1	4130	38.634324997227	0.195183342818
1	4139	38.829508340045	0.086896703346
1	4144	38.916405043391	0.009360142911
1	4149	38.925765186302	0.047065561606
1	4154	38.972830747908	0.036716052667
1	4159	39.009546800575	0.008459154035
1	4164	39.01800595461	0.000664259835
1	4166	39.018670214445	0.11031041785
1	4174	39.128980632295	0.217113773715
1	4181	39.34609440601	0.062815758767
1	4186	39.408910164777	0.133394794988
1	4192	39.542304959765	0.0544725982
1	4197	39.596777557965	0.003376068987
1	4199	39.600153626952	0.082334063394
1	4207	39.682487690346	0.102712595114
1	4212	39.78520028546	0.042429561468
1	4217	39.827629846928	0.056587268911
1	4222	39.884217115839	0.017790037889
1	4227	39.902007153728	0.015495137983
1	4232	39.917502291711	0.015911346453
1	4237	39.933413638164	0.004011764951
1	4239	39.937425403115	0.031388681977
1	4247	39.968814085092	0.086518522903
1	4252	40.055332607995	0.037840349321
1	4257	40.093172957316	0.006733002534
1	4259	40.09990595985	0.178644559705
1	4268	40.278550519555	0.080854458704
1	4273	40.359404978259	0.004538197223
1	4275	40.363943175482	0.058281262432
1	4283	40.422224437914	0.06933316416
1	4289	40.491557602074	0.115709779648
1	4295	40.607267381722	0.100985322068
1	4301	40.70825270379	0.021331352891
1	4306	40.729584056681	0.15323867862
1	4312	40.882822735301	0.051571528821
1	4317	40.934394264122	0.006685859639
1	4319	40.941080123761	0.042836470773
1	4327	40.983916594534	0.003834857108
1	4329	40.987751451642	0.042559916008
1	4338	41.03031136765	0.012823328785
1	4343	41.043134696435	0.029856509436
1	4348	41.072991205871	0.006385730099
1	4350	41.07937693597	0.011553551331
1	4358	41.090930487301	0.039160565449
1	4363	41.13009105275	0.088192353667
1	4370	41.218283406417	0.037671046809
1	4375	41.255954453226	0.091501765594
1	4381	41.34745621882	0.054100232384
1	4386	41.401556451204	0.063597825999
1	4391	41.465154277203	0.019444460013
1	4396	41.484598737216	0.058217016881
1	4402	41.542815754097	0.039581090719
1	4408	41.582396844816	0.02151155395
1	4413	41.603908398766	0.02235396382
1	4418	41.626262362586	0.081753637119
1	4423	41.708015999705	0.007287636447
1	4425	41.715303636152	0.019504207051
1	4433	41.734807843203	0.032151423643
1	4439	41.766959266846	0.210376718917
1	4447	41.977335985763	0.007736958755
1	4450	41.985072944518	0.039132369271
1	4458	42.024205313789	0.014754700277
1	4463	42.038960014066	0.144076436905
1	4468	42.183036450971	0.029800940799
1	4473	42.21283739177	0.033605131523
1	4478	42.246442523293	0.004911246327
1	4480	42.25135376962	0.119578657455
1	4488	42.370932427075	0.009581915704
1	4493	42.380514342779	0.049036433327
1	4498	42.429550776106	0.093817367243
1	4504	42.523368143349	0.004674316703
1	4506	42.528042460052	0.013953448053
1	4514	42.541995908105	0.02996084533
1	4519	42.571956753435	0.013885367381
1	4524	42.585842120816	0.013953212234
1	4529	42.59979533305	0.028321717575
1	4534	42.628117050625	0.00852856756
1	4539	42.636645618185	0.003697966024
1	4541	42.640343584209	0.02401725383
1	4549	42.664360838039	0.157410437703
1	4554	42.821771275742	0.000459400725
1	4556	42.822230676467	0.044118342498
1	4565	42.866349018965	0.020984951121
1	4570	42.887333970086	0.010459529448
1	4575	42.897793499534	0.006507474612
1	4577	42.904300974146	0.036302261944
1	4585	42.94060323609	0.085447661383
1	4590	43.026050897473	0.122487912642
1	4597	43.148538810115	0.121756690484
1	4603	43.270295500599	0.028254373787
1	4609	43.298549874386	0.01528724857
1	4614	43.313837122956	0.011037573309
1	4619	43.324874696265	0.033372983006
1	4624	43.358247679271	0.051688738607
1	4630	43.409936417878	0.010212825757
1	4635	43.420149243635	0.013595859267
1	4640	43.433745102902	0.032104832941
1	4646	43.465849935843	0.011556104726
1	4651	43.477406040569	0.102271558699
1	4658	43.579677599268	0.014687004987
1	4663	43.594364604255	0.041598586553
1	4668	43.635963190808	0.044868075354
1	4673	43.680831266162	0.01186057803
1	4678	43.692691844192	0.013603076961
1	4683	43.706294921153	0.012596736891
1	4688	43.718891658044	0.013333885652
1	4693	43.732225543696	0.013753310485
1	4699	43.745978854181	0.046986307175
1	4705	43.792965161356	0.02618858373
1	4710	43.819153745086	0.078182734454
1	4715	43.89733647954	0.011918038171
1	4720	43.909254517711	0.039122429071
1	4725	43.948376946782	0.007426778417
1	4727	43.955803725199	0.000140005267
1	4729	43.955943730466	0.010295046159
1	4737	43.966238776625	0.041240885633
1	4745	44.007479662258	0.102774027537
1	4750	44.110253689795	0.010230143833
1	4755	44.120483833628	0.070687760158
1	4762	44.191171593786	0.112171895409
1	4767	44.303343489195	0.02599909324
1	4772	44.329342582435	0.103230861018
1	4777	44.432573443453	0.12598607799
1	4783	44.558559521443	0.030628878757
1	4788	44.5891884002	0.135331124185
1	4796	44.724519524385	0.165516946406
1	4802	44.890036470791	0.04730429146
1	4808	44.937340762251	0.034688154681
1	4813	44.972028916932	0.213611173874
1	4821	45.185640090806	0.06454994242
1	4827	45.250190033226	0.041172785936
1	4833	45.291362819162	0.01350283456
1	4838	45.304865653722	0.040609657383
1	4843	45.345475311105	0.147195669821
1	4851	45.492670980926	0.040111695744
1	4856	45.53278267667	0.043539868759
1	4861	45.576322545429	0.043876023617
1	4866	45.620198569046	0.035256775122
1	4872	45.655455344168	0.0719430962
1	4877	45.727398440368	0.109337224885
1	4884	45.836735665253	0.058841487173
1	4889	45.895577152426	0.053450675091
1	4896	45.949027827517	0.013888651765
1	4901	45.962916479282	0.038495639718
1	4907	46.001412119	0.013506504021
1	4912	46.014918623021	0.025387831203
1	4917	46.040306454224	0.026578776968
1	4922	46.066885231192	0.013299052542
1	4928	46.080184283734	0.058180545985
1	4933	46.138364829719	0.001226147281
1	4935	46.139590977	0.010147121217
1	4940	46.149738098217	0.077233344617
1	4949	46.226971442834	0.042205444036
1	4954	46.26917688687	0.092043113413
1	4959	46.361220000283	0.011831000788
1	4964	46.373051001071	0.022718586648
1	4969	46.395769587719	0.019177695815
1	4974	46.414947283534	0.057545182182
1	4979	46.472492465716	0.026240885483
1	4984	46.498733351199	0.108369537112
1	4989	46.607102888311	0.027578961483
1	4994	46.634681849794	0.018105095238
1	5000	46.652786945032	0.045044723842
1	5005	46.697831668874	0.010502196372
1	5010	46.708333865246	0.011323950513
1	5015	46.719657815759	0.053352552274
1	5020	46.773010368033	0.018363274063
1	5025	46.791373642096	0.063177704327
1	5030	46.854551346423	0.003990873208
1	5032	46.858542219631	0.05604525115
1	5040	46.914587470781	0.04493694604
1	5045	46.959524416821	0.001247903379
1	5047	46.9607723202	0.031617590805
1	5056	46.992389911005	0.056698238745
1	5061	47.04908814975	0.026739405569
1	5066	47.075827555319	0.020132873296
1	5071	47.095960428615	0.004294679312
1	5073	47.100255107927	0.069480862761
1	5081	47.169735970688	0.042334335235
1	5087	47.212070305923	0.007224754042
1	5089	47.219295059965	0.012343262417
1	5097	47.231638322382	0.066859774148
1	5102	47.29849809653	0.003094291596
1	5104	47.301592388126	0.127156667446
1	5112	47.428749055572	0.020846787205
1	5118	47.449595842777	0.123181605115
1	5125	47.572777447892	0.021099543562
1	5130	47.593876991454	0.129236444018
1	5138	47.723113435472	0.003629196464
1	5140	47.726742631936	0.029775116958
1	5148	47.756517748894	0.085202877216
1	5153	47.84172062611	0.047234357845
1	5158	47.888954983955	0.025872713233
1	5163	47.914827697188	0.020864347213
1	5169	47.935692044401	0.057815946207
1	5174	47.993507990608	0.036832813926
1	5179	48.030340804534	0.023337814069
1	5184	48.053678618603	0.024992973922
1	5190	48.078671592525	0.071065098836
1	5196	48.149736691361	0.050543784374
1	5201	48.200280475735	0.029343777369
1	5206	48.229624253104	0.000902302463
1	5208	48.230526555567	0.224486171074
1	5219	48.455012726641	0.01823619776
1	5224	48.473248924401	0.038179023675
1	5229	48.511427948076	0.013926690536
1	5234	48.525354638612	0.106665858255
1	5241	48.632020496867	0.037695593131
1	5246	48.669716089998	0.179310122878
1	5254	48.849026212876	0.275295058838
1	5263	49.124321271714	0.075085700539
1	5269	49.199406972253	0.00489879587
1	5271	49.204305768123	0.038701156427
1	5279	49.24300692455	0.016656909882
1	5284	49.259663834432	0.03384920673
1	5289	49.293513041162	0.061585682189
1	5295	49.355098723351	0.030834328983
1	5301	49.385933052334	0.108118052509
1	5306	49.494051104843	0.002967418617
1	5308	49.49701852346	0.006501651004
1	5313	49.503520174464	0.052014460179
1	5321	49.555534634643	0.032055564323
1	5326	49.587590198966	0.072703267542
1	5331	49.660293466508	0.058083193289
1	5337	49.718376659797	0.051880921671
1	5342	49.770257581468	0.018680382821
1	5347	49.788937964289	0.037531748037
1	5353	49.826469712326	0.061270468528
1	5358	49.887740180854	0.000685872266
1	5360	49.88842605312	0.030458086589
1	5369	49.918884139709	0.01459591939
1	5374	49.933480059099	0.002899100466
1	5376	49.936379159565	5.3423792e-05
1	5378	49.936432583357	0.002945135097
1	5380	49.939377718454	0.016499499014
1	5388	49.955877217468	0.152277612274
1	5399	50.108154829742	0.001441823364
1	5401	50.109596653106	0.033241023794
1	5409	50.1428376769	0.114341985434
1	5416	50.257179662334	0.065548479647
1	5423	50.322728141981	0.063077055062
1	5428	50.385805197043	0.022659803328
1	5433	50.408465000371	0.16106895158
1	5440	50.569533951951	0.00908858371
1	5445	50.578622535661	0.065044613734
1	5450	50.643667149395	0.097695178577
1	5456	50.741362327972	0.025438991274
1	5462	50.766801319246	0.155570421007
1	5469	50.922371740253	0.028079531606
1	5474	50.950451271859	0.036570846324
1	5479	50.987022118183	0.010289946386
1	5484	50.997312064569	0.026986241686
1	5489	51.024298306255	0.058929406859
1	5494	51.083227713114	0.08340950468
1	5499	51.166637217794	0.09882064165
1	5505	51.265457859444	0.025265937044
1	5510	51.290723796488	0.033710708214
1	5515	51.324434504702	0.068837294466
1	5520	51.393271799168	0.058297432268
1	5525	51.451569231436	0.027893326062
1	5530	51.479462557498	0.035758972607
1	5535	51.515221530105	0.136302135957
1	5541	51.651523666062	0.031064257566
1	5546	51.682587923628	0.068631402064
1	5551	51.751219325692	0.037790539367
1	5557	51.789009865059	0.11643123325
1	5563	51.905441098309	0.040382042496
1	5568	51.945823140805	0.005638671507
1	5570	51.951461812312	0.030915742545
1	5580	51.982377554857	0.133343050087
1	5585	52.115720604944	0.074422650753
1	5591	52.190143255697	0.033462944248
1	5597	52.223606199945	0.016700791048
1	5602	52.240306990993	0.123392618135
1	5608	52.363699609128	0.030561943459
1	5613	52.394261552587	0.031410142897
1	5618	52.425671695484	0.00619005987
1	5621	52.431861755354	0.123386078616
1	5631	52.55524783397	0.006762815538
1	5634	52.562010649508	0.052225007966
1	5642	52.614235657474	0.029899180249
1	5648	52.644134837723	0.056775576864
1	5654	52.700910414587	0.007303992352
1	5656	52.708214406939	0.027905266632
1	5664	52.736119673571	0.10561915528
1	5671	52.841738828851	0.074684120711
1	5678	52.916422949562	0.021463134033
1	5683	52.937886083595	0.001724262005
1	5685	52.9396103456	0.128582134138
1	5694	53.068192479738	0.121894559748
1	5699	53.190087039486	0.026558617163
1	5704	53.216645656649	0.091126254916
1	5712	53.307771911565	0.075030958808
1	5718	53.382802870373	0.039896589062
1	5723	53.422699459435	0.005155534185
1	5725	53.42785499362	0.011875661084
1	5733	53.439730654704	0.053233949915
1	5739	53.492964604619	0.055164620232
1	5744	53.548129224851	0.064092502421
1	5749	53.612221727272	0.001915139461
1	5752	53.614136866733	0.011896531509
1	5757	53.626033398242	0.045953307034
1	5766	53.671986705276	0.009304174576
1	5772	53.681290879852	0.010649607369
1	5777	53.691940487221	0.079864453568
1	5782	53.771804940789	0.156778089854
1	5789	53.928583030643	0.020923436746
1	5794	53.949506467389	0.054869276611
1	5800	54.004375744	0.051337173696
1	5806	54.055712917696	0.256616115467
1	5812	54.312329033163	0.058873083755
1	5817	54.371202116918	0.035247142268
1	5822	54.406449259186	0.067840066874
1	5827	54.47428932606	0.07967264842
1	5832	54.55396197448	0.047856592016
1	5837	54.601818566496	0.293356832831
1	5845	54.895175399327	0.041233059248
1	5851	54.936408458575	0.04684267705
1	5856	54.983251135625	0.014340860671
1	5861	54.997591996296	0.032940765823
1	5867	55.030532762119	0.025696414723
1	5872	55.056229176842	0.009280480807
1	5877	55.065509657649	0.01994993378
1	5882	55.085459591429	0.027567541325
1	5887	55.113027132754	0.052797846517
1	5892	55.165824979271	0.005577310625
1	5894	55.171402289896	0.00585376751
1	5899	55.177256057406	0.044571512453
1	5907	55.221827569859	0.003031440871
1	5909	55.22485901073	0.092302707368
1	5919	55.317161718098	0.077920470174
1	5924	55.395082188272	0.084003391492
1	5929	55.479085579764	0.124839367121
1	5934	55.603924946885	0.042756597452
1	5939	55.646681544337	0.032889535177
1	5944	55.679571079514	0.054146690945
1	5950	55.733717770459	0.005224981104
1	5952	55.738942751563	0.084244760359
1	5961	55.823187511922	0.024037778304
1	5966	55.847225290226	0.002264795443
1	5968	55.849490085669	0.111293771095
1	5976	55.960783856764	0.016779135561
1	5981	55.977562992325	0.041162586902
1	5986	56.018725579227	0.032424556549
1	5993	56.051150135776	0.042786752578
1	5998	56.093936888354	0.001154551758
1	6000	56.095091440112	0.017038801903
1	6008	56.112130242015	0.087940549214
1	6013	56.200070791229	0.018355901619
1	6018	56.218426692848	0.08445621764
1	6024	56.302882910488	0.042033342041
1	6029	56.344916252529	0.089649733456
1	6034	56.434565985985	0.096808523214
1	6040	56.531374509199	0.069536631072
1	6046	56.600911140271	0.011367411955
1	6051	56.612278552226	0.012120822489
1	6056	56.624399374715	0.003800849751
1	6058	56.628200224466	0.052574135464
1	6067	56.68077435993	0.078223278832
1	6072	56.758997638762	0.00719977573
1	6074	56.766197414492	0.269482681672
1	6087	57.035680096164	0.12007965039
1	6092	57.155759746554	0.019152199765
1	6097	57.174911946319	0.046995322205
1	6102	57.221907268524	0.021484600985
1	6107	57.243391869509	0.027780624727
1	6112	57.271172494236	0.020950313191
1	6118	57.292122807427	0.004832817759
1	6120	57.296955625186	0.04637078055
1	6128	57.343326405736	0.122558898648
1	6134	57.465885304384	0.010640776998
1	6139	57.476526081382	0.06972587621
1	6144	57.546251957592	0.00921355918
1	6149	57.555465516772	0.036208257872
1	6154	57.591673774644	0.008620204958
1	6159	57.600293979602	0.072880986721
1	6165	57.673174966323	0.001782007551
1	6167	57.674956973874	0.007711823608
1	6172	57.682668797482	0.04883752834
1	6180	57.731506325822	0.026817752933
1	6185	57.758324078755	0.034375002009
1	6190	57.792699080764	0.011042264876
1	6195	57.80374134564	0.010331116728
1	6200	57.814072462368	0.106133422463
1	6205	57.920205884831	0.141769047711
1	6211	58.061974932542	0.06753628996
1	6217	58.129511222502	0.06942793473
1	6222	58.198939157232	0.002897162134
1	6225	58.201836319366	0.00126441907
1	6227	58.203100738436	0.006828448776
1	6232	58.209929187212	0.121071362092
1	6243	58.331000549304	0.030160698053
1	6250	58.361161247357	0.041794552633
1	6255	58.40295579999	0.119115297703
1	6263	58.522071097693	0.123237072678
1	6269	58.645308170371	0.007307383294
1	6274	58.652615553665	0.009305400676
1	6279	58.661920954341	0.023234249154
1	6284	58.685155203495	0.013895500643
1	6289	58.699050704138	0.005355553687
1	6291	58.704406257825	0.002676021598
1	6296	58.707082279423	0.033247282151
1	6305	58.740329561574	0.045103111806
1	6310	58.78543267338	0.141286928088
1	6318	58.926719601468	0.06858957404
1	6325	58.995309175508	0.021341327472
1	6330	59.01665050298	0.06547121179
1	6336	59.08212171477	0.107513398488
1	6342	59.189635113258	0.07632923592
1	6347	59.265964349178	0.00319400986
1	6349	59.269158359038	0.019989650327
1	6357	59.289148009365	0.003440341587
1	6359	59.292588350952	0.015894428216
1	6367	59.308482779168	0.047387807084
1	6372	59.355870586252	0.125974326173
1	6382	59.481844912425	0.06224331593
1	6387	59.544088228355	0.116557295239
1	6393	59.660645523594	0.108988296576
1	6398	59.76963382017	0.144732919517
1	6403	59.914366739687	0.021186460961
1	6408	59.935553200648	0.065312159381
1	6414	60.000865360029	0.001800569347
1	6416	60.002665929376	0.019984541074
1	6424	60.02265047045	0.049718481266
1	6430	60.072368951716	0.020047119765
1	6436	60.092416071481	0.000203771475
1	6438	60.092619842956	0.011267085283
1	6443	60.103886928239	0.019280465019
1	6451	60.123167393258	0.042547227348
1	6458	60.165714620606	0.008938568096
1	6463	60.174653188702	0.035632071215
1	6468	60.210285259917	0.00854173562
1	6473	60.218826995537	0.031728120444
1	6478	60.250555115981	0.192973791288
1	6485	60.443528907269	0.030895855477
1	6490	60.474424762746	0.050080068456
1	6495	60.524504831202	0.018174058646
1	6500	60.542678889848	0.060214540685
1	6505	60.602893430533	0.005814403553
1	6508	60.608707834086	0.04009655761
1	6517	60.648804391696	0.018750032154
1	6522	60.66755442385	0.048648418427
1	6529	60.716202842277	0.08838650744
1	6534	60.804589349717	0.14601695978
1	6539	60.950606309497	0.006099399649
1	6541	60.956705709146	0.043608618786
1	6550	61.000314327932	0.044331738807
1	6556	61.044646066739	0.002238130748
1	6558	61.046884197487	0.130774600158
1	6566	61.177658797645	0.111036485598
1	6573	61.288695283243	0.053764122901
1	6578	61.342459406144	0.016664622819
1	6583	61.359124028963	0.059410170615
1	6588	61.418534199578	0.020499897457
1	6594	61.439034097035	0.03032358892
1	6600	61.469357685955	0.060609213713
1	6606	61.529966899668	0.055809425142
1	6611	61.58577632481	0.003988718067
1	6613	61.589765042877	0.002568763285
1	6615	61.592333806162	0.077616811015
1	6628	61.669950617177	0.043925730894
1	6633	61.713876348071	0.020658518719
1	6638	61.73453486679	0.01616332999
1	6643	61.75069819678	0.016239317831
1	6648	61.766937514611	0.069671200558
1	6654	61.836608715169	0.066868907107
1	6661	61.903477622276	0.023822046153
1	6666	61.927299668429	0.167917152889
1	6672	62.095216821318	0.071379829115
1	6677	62.166596650433	0.074689446477
1	6682	62.24128609691	0.074441505857
1	6689	62.315727602767	0.069232193251
1	6696	62.384959796018	0.01369410415
1	6701	62.398653900168	0.009596883377
1	6706	62.408250783545	0.104979938721
1	6711	62.513230722266	0.044645984706
1	6716	62.557876706972	0.064890159205
1	6721	62.622766866177	0.038916202218
1	6726	62.661683068395	0.127337458252
1	6733	62.789020526647	0.043198294528
1	6739	62.832218821175	0.137041500153
1	6744	62.969260321328	0.079723644432
1	6749	63.04898396576	0.007213881493
1	6751	63.056197847253	0.001192131517
1	6756	63.05738997877	0.011963571114
1	6762	63.069353549884	0.037519121981
1	6770	63.106872671865	0.002723671291
1	6772	63.109596343156	0.055147331433
1	6781	63.164743674589	0.130785053539
1	6787	63.295528728128	0.006441618433
1	6789	63.301970346561	0.046145105662
1	6797	63.348115452223	0.116409373666
1	6804	63.464524825889	0.078539153005
1	6810	63.543063978894	0.023921514195
1	6815	63.566985493089	0.015154832323
1	6820	63.582140325412	0.056891951999
1	6825	63.639032277411	0.026851000945
1	6830	63.665883278356	0.043063136316
1	6835	63.708946414672	0.07558161167
1	6840	63.784528026342	0.003663090903
1	6842	63.788191117245	0.011890234711
1	6850	63.800081351956	0.028955398362
1	6856	63.829036750318	0.074646433174
1	6863	63.903683183492	0.013610587326
1	6868	63.917293770818	0.067796294361
1	6873	63.985090065179	0.017440538557
1	6879	64.002530603736	0.069690457372
1	6885	64.072221061108	0.035864437333
1	6891	64.108085498441	0.010764846905
1	6896	64.118850345346	0.055877223986
1	6902	64.174727569332	0.118149938967
1	6909	64.292877508299	0.078287859249
1	6914	64.371165367548	0.100038127084
1	6920	64.471203494632	0.039588545068
1	6926	64.5107920397	0.08420420943
1	6933	64.59499624913	0.003559551248
1	6935	64.598555800378	0.048514434701
1	6943	64.647070235079	0.007744514878
1	6948	64.654814749957	0.236816246244
1	6956	64.891630996201	0.042542324971
1	6961	64.934173321172	0.06173783989
1	6969	64.995911161062	0.008711683441
1	6975	65.004622844503	0.165300339283
1	6981	65.169923183786	0.03184272715
1	6986	65.201765910936	0.020399460275
1	6991	65.222165371211	0.090572321099
1	6997	65.31273769231	0.017370852226
1	7002	65.330108544536	0.039742614838
1	7007	65.369851159374	0.043255623164
1	7012	65.413106782538	0.00609546249
1	7014	65.419202245028	0.008408874636
1	7019	65.427611119664	0.001131239128
1	7021	65.428742358792	0.132510225236
1	7035	65.561252584028	0.035002075923
1	7040	65.596254659951	0.04974561063
1	7045	65.646000270581	0.011984328388
1	7050	65.657984598969	0.089847020389
1	7055	65.747831619358	0.073270014094
1	7060	65.821101633452	0.003489464773
1	7062	65.824591098225	0.020571923414
1	7070	65.845163021639	0.162860800576
1	7076	66.008023822215	0.009511447605
1	7081	66.01753526982	0.170009543116
1	7086	66.187544812936	0.036222052902
1	7091	66.223766865838	0.007332882286
1	7093	66.231099748124	0.022261286811
1	7101	66.253361034935	0.031216571806
1	7106	66.284577606741	1.7625336e-05
1	7108	66.284595232077	0.037096932582
1	7117	66.321692164659	0.041343530479
1	7122	66.363035695138	0.020965173405
1	7127	66.384000868543	0.022364946812
1	7132	66.406365815355	0.029640262328
1	7138	66.436006077683	0.005542305527
1	7140	66.44154838321	0.048827539049
1	7148	66.490375922259	0.013988738166
1	7153	66.504364660425	0.024469564316
1	7158	66.528834224741	0.012294167041
1	7163	66.541128391782	0.061124853229
1	7168	66.602253245011	0.05094878077
1	7173	66.653202025781	0.017513182402
1	7178	66.670715208183	0.104295931687
1	7186	66.77501113987	0.04384707934
1	7191	66.81885821921	0.07335079416
1	7196	66.89220901337	0.003313315746
1	7198	66.895522329116	0.022729704455
1	7206	66.918252033571	0.003040984443
1	7208	66.921293018014	0.00849465012
1	7213	66.929787668134	0.00143650597
1	7215	66.931224174104	0.083155334289
1	7226	67.014379508393	0.115885782497
1	7232	67.13026529089	0.027012475578
1	7237	67.157277766468	0.048214214259
1	7243	67.205491980727	0.046567202225
1	7248	67.252059182952	0.006132251076
1	7250	67.258191434028	0.000701817966
1	7252	67.258893251994	0.039139173703
1	7263	67.298032425697	0.016663433564
1	7268	67.314695859261	0.019551830408
1	7273	67.334247689669	0.196234512237
1	7278	67.530482201906	0.025353756815
1	7284	67.555835958721	0.029560936076
1	7289	67.585396894797	0.052710774516
1	7296	67.638107669313	0.037636762574
1	7301	67.675744431887	0.072959011172
1	7306	67.748703443059	0.113375459119
1	7311	67.862078902178	0.139132661738
1	7317	68.001211563916	0.017723911146
1	7324	68.018935475062	0.041760305439
1	7329	68.060695780501	0.201303515016
1	7335	68.261999295517	0.033931263673
1	7340	68.29593055919	0.066548307084
1	7345	68.362478866274	0.023037468873
1	7350	68.385516335147	0.033347742979
1	7356	68.418864078126	0.01073425433
1	7361	68.429598332456	0.123428883902
1	7369	68.553027216358	0.004127814979
1	7371	68.557155031337	0.164112319183
1	7379	68.72126735052	0.010098309798
1	7384	68.731365660318	0.038263759045
1	7389	68.769629419363	0.018268386936
1	7394	68.787897806299	0.062365450523
1	7399	68.850263256822	0.081141848661
1	7405	68.931405105483	0.092740726737
1	7410	69.02414583222	0.049929395959
1	7417	69.074075228179	0.047823691208
1	7424	69.121898919387	0.008624493996
1	7426	69.130523413383	0.012632732648
1	7434	69.143156146031	0.005949092394
1	7436	69.149105238425	0.16529266856
1	7444	69.314397906985	0.062311865482
1	7449	69.376709772467	0.016701935684
1	7454	69.393411708151	0.060842081511
1	7459	69.454253789662	0.067880890128
1	7466	69.52213467979	0.046445217069
1	7471	69.568579896859	0.00854808399
1	7473	69.577127980849	0.06569638015
1	7482	69.642824360999	0.000601607181
1	7484	69.64342596818	0.020991127879
1	7492	69.664417096059	0.079366823373
1	7497	69.743783919432	0.031364589772
1	7502	69.775148509204	0.001736074962
1	7504	69.776884584166	0.037103173474
1	7513	69.81398775764	0.002396495954
1	7515	69.816384253594	0.04913723212
1	7523	69.865521485714	0.062144231048
1	7528	69.927665716762	0.055911928923
1	7533	69.983577645685	0.011123088272
1	7538	69.994700733957	0.029040944475
1	7543	70.023741678432	0.021350428767
1	7548	70.045092107199	0.018093709122
1	7553	70.063185816321	0.09565228295
1	7558	70.158838099271	0.065083243713
1	7563	70.223921342984	0.002479900258
1	7565	70.226401243242	0.02961826075
1	7573	70.256019503992	0.042492606949
1	7579	70.298512110941	0.034671404134
1	7585	70.333183515075	0.005357520821
1	7587	70.338541035896	0.061293241701
1	7597	70.399834277597	0.020236613195
1	7603	70.420070890792	0.028006048719
1	7608	70.448076939511	0.145246312853
1	7616	70.593323252364	0.06307366676
1	7621	70.656396919124	0.065097739408
1	7626	70.721494658532	0.00193299128
1	7628	70.723427649812	0.039097530304
1	7636	70.762525180116	0.019381187183
1	7641	70.781906367299	0.048894459772
1	7647	70.830800827071	0.059629231394
1	7653	70.890430058465	0.023936294411
1	7658	70.914366352876	0.012398755237
1	7663	70.926765108113	0.106362645433
1	7668	71.033127753546	0.001959708281
1	7670	71.035087461827	0.098071087564
1	7678	71.133158549391	0.004920473662
1	7680	71.138079023053	0.000866227903
1	7682	71.138945250956	0.001965777073
1	7684	71.140911028029	0.265191760527
1	7699	71.406102788556	0.007586733884
1	7701	71.41368952244	0.013562444277
1	7709	71.427251966717	0.051349961106
1	7714	71.478601927823	0.0076996494
1	7716	71.486301577223	0.122203279679
1	7724	71.608504856902	0.235778379168
1	7730	71.84428323607	0.024611638633
1	7736	71.868894874703	0.018781463754
1	7741	71.887676338457	0.083495896193
1	7746	71.97117223465	0.07317430903
1	7751	72.04434654368	0.053793484544
1	7756	72.098140028224	0.019093913318
1	7761	72.117233941542	0.0363538134
1	7766	72.153587754942	0.007005807638
1	7768	72.16059356258	0.067469705404
1	7777	72.228063267984	0.012212778561
1	7782	72.240276046545	0.038974922846
1	7787	72.279250969391	0.028943435231
1	7792	72.308194404622	0.070964699082
1	7797	72.379159103704	0.030908277401
1	7802	72.410067381105	0.040823949147
1	7808	72.450891330252	0.038097505647
1	7813	72.488988835899	0.096915400676
1	7818	72.585904236575	0.047404092032
1	7823	72.633308328607	0.015109201315
1	7829	72.648417529922	0.042496974067
1	7836	72.690914503989	0.056829063321
1	7842	72.74774356731	0.026151069429
1	7847	72.773894636739	0.048661575916
1	7852	72.822556212655	0.028844578133
1	7857	72.851400790788	0.167208669414
1	7862	73.018609460202	0.02927797736
1	7867	73.047887437562	0.005119271298
1	7869	73.05300670886	0.029138977267
1	7878	73.082145686127	0.015705630577
1	7883	73.097851316704	0.003466014139
1	7885	73.101317330843	0.098460664162
1	7894	73.199777995005	0.013528921261
1	7899	73.213306916266	0.006133509004
1	7902	73.21944042527	0.013569375975
1	7910	73.233009801245	0.034652881686
1	7916	73.267662682931	0.007720838041
1	7918	73.275383520972	0.165157134949
1	7926	73.440540655921	0.047495701004
1	7932	73.488036356925	0.247192677589
1	7940	73.735229034514	0.011196108494
1	7945	73.746425143008	0.055802862504
1	7951	73.802228005512	0.037052001887
1	7956	73.839280007399	0.037596575535
1	7961	73.876876582934	0.067569971045
1	7966	73.944446553979	0.109601841255
1	7971	74.054048395234	0.044835943711
1	7976	74.098884338945	0.081735719347
1	7981	74.180620058292	0.087060641264
1	7987	74.267680699556	0.056876321866
1	7992	74.324557021422	0.021349543337
1	7997	74.345906564759	0.0013188406
1	7999	74.347225405359	0.093178401483
1	8008	74.440403806842	0.022025957932
1	8013	74.462429764774	0.030194873274
1	8018	74.492624638048	0.010131383911
1	8023	74.502756021959	0.046364963341
1	8028	74.5491209853	0.001596636556
1	8030	74.550717621856	0.038975021662
1	8038	74.589692643518	0.040351551556
1	8043	74.630044195074	0.092653481268
1	8048	74.722697676342	0.023340371795
1	8053	74.746038048137	0.029884206724
1	8059	74.775922254861	0.055369105769
1	8064	74.83129136063	0.043000800584
1	8069	74.874292161214	0.011171941307
1	8075	74.885464102521	0.120539746693
1	8080	75.006003849214	0.07747707148
1	8085	75.083480920694	0.00640213781
1	8087	75.089883058504	0.120356778571
1	8096	75.210239837075	0.034300324668
1	8102	75.244540161743	0.098626223953
1	8109	75.343166385696	0.012153881018
1	8114	75.355320266714	0.166174735573
1	8119	75.521495002287	0.108326491834
1	8125	75.629821494121	0.178440985367
1	8132	75.808262479488	0.071136402581
1	8138	75.879398882069	0.088086871511
1	8143	75.96748575358	0.045786132031
1	8148	76.013271885611	0.030845837554
1	8153	76.044117723165	0.01612626317
1	8158	76.060243986335	0.036391772594
1	8163	76.096635758929	0.001911699912
1	8165	76.098547458841	0.138057155723
1	8173	76.236604614564	0.073656883492
1	8178	76.310261498056	0.093215745617
1	8183	76.403477243673	0.027480051947
1	8188	76.43095729562	0.021823389201
1	8193	76.452780684821	0.056123419012
1	8199	76.508904103833	0.002825864592
1	8201	76.511729968425	0.047201016944
1	8209	76.558930985369	0.014664723671
1	8214	76.57359570904	0.114652830199
1	8219	76.688248539239	0.054823805489
1	8225	76.743072344728	0.057662390072
1	8231	76.8007347348	0.055366958763
1	8236	76.856101693563	0.034049233856
1	8241	76.890150927419	0.227162601378
1	8248	77.117313528797	0.12504468958
1	8255	77.242358218377	0.063430551208
1	8260	77.305788769585	0.026534817041
1	8265	77.332323586626	0.069158951557
1	8270	77.401482538183	0.011221236166
1	8275	77.412703774349	0.105772975851
1	8281	77.5184767502	0.04839879097
1	8288	77.56687554117	0.001702714279
1	8290	77.568578255449	0.0520777577
1	8298	77.620656013149	0.020098997337
1	8303	77.640755010486	0.005316002922
1	8305	77.646071013408	0.002021449397
1	8307	77.648092462805	0.019263393898
1	8318	77.667355856703	0.018121686667
1	8323	77.68547754337	0.080901231915
1	8328	77.766378775285	0.045463016344
1	8333	77.811841791629	0.039249508972
1	8339	77.851091300601	0.013199062424
1	8344	77.864290363025	0.017797943917
1	8350	77.882088306942	0.120271184131
1	8356	78.002359491073	0.004786817153
1	8358	78.007146308226	0.018261083771
1	8366	78.025407391997	0.026094898717
1	8371	78.051502290714	0.013124483976
1	8376	78.06462677469	0.019915014661
1	8381	78.084541789351	0.001356342904
1	8383	78.085898132255	0.014342997526
1	8388	78.100241129781	0.003023516231
1	8393	78.103264646012	0.010749549772
1	8398	78.114014195784	0.023397829188
1	8406	78.137412024972	0.078193757425
1	8414	78.215605782397	0.007417997473
1	8416	78.22302377987	0.016763999233
1	8424	78.239787779103	0.015710043191
1	8429	78.255497822294	0.123916822987
1	8436	78.379414645281	0.023793118326
1	8441	78.403207763607	0.028608600986
1	8446	78.431816364593	0.04783376026
1	8451	78.479650124853	0.056121901802
1	8457	78.535772026655	0.023250060165
1	8462	78.55902208682	0.016840695219
1	8467	78.575862782039	0.086903607791
1	8472	78.66276638983	0.015793319044
1	8477	78.678559708874	0.089353478917
1	8483	78.767913187791	0.012574844408
1	8488	78.780488032199	0.057056438966
1	8493	78.837544471165	0.01869950349
1	8498	78.856243974655	0.026311741261
1	8503	78.882555715916	0.129925365645
1	8510	79.012481081561	0.063186854581
1	8515	79.075667936142	0.148607257582
1	8523	79.224275193724	0.008211355984
1	8528	79.232486549708	0.035912834763
1	8533	79.268399384471	0.056036193467
1	8538	79.324435577938	0.036386341817
1	8544	79.360821919755	0.003743794747
1	8546	79.364565714502	0.049925650009
1	8555	79.414491364511	0.085097977506
1	8561	79.499589342017	0.036677829973
1	8566	79.53626717199	0.013327720162
1	8571	79.549594892152	0.036516781796
1	8577	79.586111673948	0.028600693394
1	8584	79.614712367342	0.04006705569
1	8589	79.654779423032	0.061929270463
1	8594	79.716708693495	0.002945091485
1	8596	79.71965378498	0.030073812917
1	8604	79.749727597897	0.340329935292
1	8611	80.090057533189	0.030021644868
1	8616	80.120079178057	0.013454966341
1	8621	80.133534144398	0.046998497602
1	8626	80.180532642	0.015719199539
1	8631	80.196251841539	0.005494826763
1	8633	80.201746668302	0.035896962256
1	8643	80.237643630558	0.006825854318
1	8645	80.244469484876	0.067657122179
1	8653	80.312126607055	0.003074377288
1	8655	80.315200984343	0.056006191338
1	8663	80.371207175681	0.002124702476
1	8665	80.373331878157	0.098519136462
1	8674	80.471851014619	0.013460210938
1	8679	80.485311225557	0.090212986468
1	8684	80.575524212025	0.04222394547
1	8689	80.617748157495	0.005746861857
1	8691	80.623495019352	0.003303406018
1	8696	80.62679842537	0.096679101862
1	8704	80.723477527232	0.010952615359
1	8709	80.734430142591	0.022491590788
1	8714	80.756921733379	0.009132861385
1	8719	80.766054594764	0.025226939932
1	8724	80.791281534696	0.177680676578
1	8731	80.968962211274	0.004665901038
1	8733	80.973628112312	0.082487235444
1	8744	81.056115347756	0.037682520819
1	8750	81.093797868575	0.037016194168
1	8755	81.130814062743	0.018486247268
1	8760	81.149300310011	0.032403399689
1	8767	81.1817037097	0.033383152911
1	8772	81.215086862611	0.0095820651
1	8777	81.224668927711	0.055490570495
1	8782	81.280159498206	0.021220349902
1	8787	81.301379848108	0.083341439627
1	8792	81.384721287735	0.036502935903
1	8797	81.421224223638	0.057275153025
1	8802	81.478499376663	0.027207909637
1	8807	81.5057072863	0.02370026371
1	8812	81.52940755001	0.030466052051
1	8817	81.559873602061	0.011981028018
1	8822	81.571854630079	0.01858698008
1	8827	81.590441610159	0.009844855546
1	8832	81.600286465705	0.061089761111
1	8837	81.661376226816	0.031575972017
1	8842	81.692952198833	0.04030840159
1	8847	81.733260600423	0.065088509623
1	8852	81.798349110046	0.008752238453
1	8857	81.807101348499	0.017689307813
1	8862	81.824790656312	0.052747027688
1	8868	81.877537684	0.042849070931
1	8874	81.920386754931	0.032072108985
1	8880	81.952458863916	0.013712192186
1	8885	81.966171056102	0.04321416799
1	8890	82.009385224092	0.011446147675
1	8895	82.020831371767	0.080631002519
1	8900	82.101462374286	0.050092693267
1	8906	82.151555067553	0.016012930343
1	8911	82.167567997896	0.086563146182
1	8916	82.254131144078	0.088285225349
1	8922	82.342416369427	0.011426561976
1	8927	82.353842931403	0.001585900216
1	8929	82.355428831619	0.01399129358
1	8934	82.369420125199	0.009882166161
1	8942	82.37930229136	0.002051112933
1	8944	82.381353404293	0.021787288297
1	8952	82.40314069259	0.006873270413
1	8955	82.410013963003	0.022170552702
1	8964	82.432184515705	0.003063639318
1	8966	82.435248155023	0.002730581315
1	8968	82.437978736338	0.097620437423
1	8980	82.535599173761	0.004030802542
1	8982	82.539629976303	0.071335168467
1	8990	82.61096514477	0.006034969644
1	8992	82.617000114414	0.050417796819
1	9002	82.667417911233	0.022028734443
1	9007	82.689446645676	0.066356148054
1	9013	82.75580279373	0.071709988942
1	9019	82.827512782672	0.175300654459
1	9029	83.002813437131	0.038420161245
1	9035	83.041233598376	0.038909040997
1	9040	83.080142639373	0.047874214431
1	9045	83.128016853804	0.010427821088
1	9050	83.138444674892	0.053487683879
1	9056	83.191932358771	0.035520905183
1	9061	83.227453263954	0.051636670392
1	9066	83.279089934346	0.101361549386
1	9072	83.380451483732	0.000514378464
1	9074	83.380965862196	0.02863391128
1	9082	83.409599773476	0.015541587349
1	9088	83.425141360825	0.166651905871
1	9094	83.591793266696	0.01367529827
1	9099	83.605468564966	0.033150826006
1	9104	83.638619390972	0.029224222394
1	9110	83.667843613366	0.057306884398
1	9116	83.725150497764	0.113640438742
1	9121	83.838790936506	0.050743078925
1	9126	83.889534015431	0.020150425279
1	9133	83.90968444071	0.104694016993
1	9140	84.014378457703	0.082039222916
1	9146	84.096417680619	0.09026934018
1	9153	84.186687020799	0.091261737825
1	9159	84.277948758624	0.049307573351
1	9164	84.327256331975	0.136812658212
1	9170	84.464068990187	0.04550793537
1	9176	84.509576925557	0.001543848687
1	9178	84.511120774244	0.015642189339
1	9186	84.526762963583	0.059302539988
1	9191	84.586065503571	0.116767492852
1	9196	84.702832996423	0.004370993428
1	9198	84.707203989851	0.041645546279
1	9206	84.74884953613	0.027687490064
1	9211	84.776537026194	0.025947135388
1	9216	84.802484161582	0.028337548075
1	9222	84.830821709657	0.018670616667
1	9227	84.849492326324	0.083303627591
1	9234	84.932795953915	0.124586829013
1	9239	85.057382782928	0.015855493472
1	9244	85.0732382764	0.007597425104
1	9246	85.080835701504	0.019655707257
1	9254	85.100491408761	0.074031397561
1	9261	85.174522806322	0.166852160694
1	9267	85.341374967016	0.014876246688
1	9272	85.356251213704	0.039439356566
1	9277	85.39569057027	0.008218673233
1	9282	85.403909243503	0.051259977992
1	9291	85.455169221495	0.045194839846
1	9296	85.500364061341	0.134248495815
1	9301	85.634612557156	0.023634608412
1	9306	85.658247165568	0.082576094952
1	9313	85.74082326052	0.044896876237
1	9318	85.785720136757	0.086581036946
1	9323	85.872301173703	0.031479414353
1	9328	85.903780588056	0.087412664981
1	9333	85.991193253037	0.043021360475
1	9339	86.034214613512	0.077960894027
1	9344	86.112175507539	0.023371588955
1	9349	86.135547096494	0.012912848083
1	9354	86.148459944577	0.078397935238
1	9359	86.226857879815	0.054229806753
1	9364	86.281087686568	0.042580266887
1	9369	86.323667953455	0.020818251375
1	9374	86.34448620483	0.027152042258
1	9379	86.371638247088	0.081686313772
1	9385	86.45332456086	0.089567429493
1	9390	86.542891990353	0.094381191561
1	9395	86.637273181914	0.033656365969
1	9401	86.670929547883	0.018890683191
1	9406	86.689820231074	0.03162512236
1	9411	86.721445353434	0.083925446949
1	9416	86.805370800383	0.170402086543
1	9423	86.975772886926	0.011191107899
1	9429	86.986963994825	0.144605449153
1	9435	87.131569443978	0.257573814423
1	9442	87.389143258401	0.017585189416
1	9447	87.406728447817	0.080919955982
1	9452	87.487648403799	0.088990581413
1	9458	87.576638985212	0.062310546246
1	9464	87.638949531458	0.061111419794
1	9469	87.700060951252	0.253981969482
1	9475	87.954042920734	0.021692976967
1	9480	87.975735897701	0.007895340975
1	9482	87.983631238676	0.010970868431
1	9490	87.994602107107	0.172482977901
1	9499	88.167085085008	0.114217116401
1	9505	88.281302201409	0.040161552591
1	9510	88.321463754	0.000140124997
1	9512	88.321603878997	0.006310247124
1	9514	88.327914126121	0.068819333884
1	9525	88.396733460005	0.069623186339
1	9530	88.466356646344	0.071759274819
1	9538	88.538115921163	0.063194037481
1	9543	88.601309958644	0.079512625059
1	9549	88.680822583703	0.037458013193
1	9555	88.718280596896	0.052788958417
1	9560	88.771069555313	0.010024213591
1	9565	88.781093768904	0.024581372235
1	9570	88.805675141139	0.007344091146
1	9572	88.813019232285	0.015791429742
1	9580	88.828810662027	0.028093349819
1	9585	88.856904011846	0.024758860907
1	9590	88.881662872753	0.040038325864
1	9595	88.921701198617	0.028836786599
1	9600	88.950537985216	0.048667688725
1	9605	88.999205673941	0.035425784673
1	9610	89.034631458614	0.043264495429
1	9615	89.077895954043	0.000515634981
1	9617	89.078411589024	0.009224346076
1	9622	89.0876359351	0.061500895668
1	9630	89.149136830768	0.030096067813
1	9635	89.179232898581	0.103057901447
1	9643	89.282290800028	0.062943490698
1	9648	89.345234290726	0.111295157452
1	9654	89.456529448178	0.079642796011
1	9659	89.536172244189	0.040415186574
1	9664	89.576587430763	0.001505358321
1	9666	89.578092789084	0.062101778136
1	9674	89.64019456722	0.05907714263
1	9679	89.69927170985	0.005142514998
1	9681	89.704414224848	0.180245235842
1	9689	89.88465946069	0.01018619984
1	9694	89.89484566053	0.007550345779
1	9696	89.902396006309	0.146446920131
1	9705	90.04884292644	0.026587201153
1	9710	90.075430127593	0.020249977149
1	9715	90.095680104742	0.127535866896
1	9720	90.223215971638	0.020545585209
1	9725	90.243761556847	0.018661576061
1	9730	90.262423132908	0.043746151208
1	9735	90.306169284116	0.033147569228
1	9740	90.339316853344	0.007064374699
1	9742	90.346381228043	0.081161603129
1	9750	90.427542831172	0.079674859254
1	9755	90.507217690426	0.00051384711
1	9757	90.507731537536	0.006472626505
1	9759	90.514204164041	0.012788586579
1	9767	90.52699275062	0.130567877271
1	9775	90.657560627891	0.007656047796
1	9780	90.665216675687	0.006508948899
1	9782	90.671725624586	0.010072244128
1	9790	90.681797868714	0.01436075976
1	9795	90.696158628474	0.027018600356
1	9800	90.72317722883	0.190477295356
1	9808	90.913654524186	0.012973608871
1	9813	90.926628133057	0.054387568929
1	9818	90.981015701986	0.001156943945
1	9820	90.982172645931	0.032046996849
1	9828	91.01421964278	0.073477428768
1	9833	91.087697071548	0.017891509114
1	9838	91.105588580662	0.090306870164
1	9845	91.195895450826	0.06062694963
1	9851	91.256522400456	0.042602946741
1	9856	91.299125347197	0.131760587099
1	9861	91.430885934296	0.045617884933
1	9867	91.476503819229	0.039142446556
1	9873	91.515646265785	0.063809079705
1	9878	91.57945534549	0.097874109001
1	9884	91.677329454491	8.8438421e-05
1	9886	91.677417892912	0.034794910408
1	9894	91.71221280332	0.070027895656
1	9900	91.782240698976	0.063138483866
1	9905	91.845379182842	0.00357649232
1	9907	91.848955675162	0.143327206055
1	9916	91.992282881217	0.003590551628
1	9918	91.995873432845	0.100093165689
1	9926	92.095966598534	0.030820585457
1	9931	92.126787183991	0.01152346765
1	9936	92.138310651641	0.104721872258
1	9941	92.243032523899	0.056127841679
1	9946	92.299160365578	0.028513563548
1	9951	92.327673929126	0.045906709465
1	9956	92.373580638591	0.045047389617
1	9961	92.418628028208	0.34814088519
1	9973	92.766768913398	0.022025225809
1	9978	92.788794139207	0.05826223774
1	9983	92.847056376947	0.134964139328
1	9989	92.982020516275	0.121801451833
1	9995	93.103821968108	0.026951813789
1	10000	93.130773781897	0.056970999437
1	10006	93.187744781334	0.039912781109
1	10011	93.227657562443	0.139786591199
1	10017	93.367444153642	0.055584450537
1	10023	93.423028604179	0.002923717256
1	10025	93.425952321435	0.050469159553
1	10034	93.476421480988	0.022004918041
1	10039	93.498426399029	0.10184667648
1	10045	93.600273075509	0.023289705074
1	10050	93.623562780583	0.107313478445
1	10056	93.730876259028	0.02138903847
1	10061	93.752265297498	0.007478601903
1	10063	93.759743899401	0.006660271109
1	10068	93.76640417051	0.001209006108
1	10073	93.767613176618	0.016024497759
1	10081	93.783637674377	0.004698905139
1	10083	93.788336579516	0.022784285938
1	10091	93.811120865454	0.069916679254
1	10096	93.881037544708	0.025721772075
1	10101	93.906759316783	0.001921780507
1	10103	93.90868109729	0.019559973038
1	10111	93.928241070328	0.011890051751
1	10116	93.940131122079	0.033871976109
1	10121	93.974003098188	0.034699078632
1	10126	94.00870217682	0.061343447963
1	10132	94.070045624783	0.045110180484
1	10137	94.115155805267	0.007231562359
1	10139	94.122387367626	0.084444765719
1	10150	94.206832133345	0.044651419745
1	10155	94.25148355309	0.122278051225
1	10160	94.373761604315	0.001377837075
1	10162	94.37513944139	0.040477570995
1	10170	94.415617012385	0.016086001756
1	10175	94.431703014141	0.000293320567
1	10177	94.431996334708	0.106777159387
1	10185	94.538773494095	0.002523915333
1	10187	94.541297409428	0.146400533861
1	10196	94.687697943289	0.319503326245
1	10204	95.007201269534	0.182905544022
1	10215	95.190106813556	0.026165182704
1	10220	95.21627199626	0.045605367259
1	10226	95.261877363519	0.020414615105
1	10231	95.282291978624	0.005331235007
1	10233	95.287623213631	0.049912213493
1	10241	95.337535427124	0.017242014525
1	10246	95.354777441649	0.040690990446
1	10252	95.395468432095	0.038365087193
1	10258	95.433833519288	0.008310826698
1	10260	95.442144345986	0.000590476455
1	10265	95.442734822441	0.073518199171
1	10273	95.516253021612	0.001966064333
1	10275	95.518219085945	0.000546580212
1	10277	95.518765666157	0.02361777674
1	10288	95.542383442897	0.104498873789
1	10294	95.646882316686	0.01585946535
1	10300	95.662741782036	0.044438545754
1	10306	95.70718032779	0.196429475315
1	10313	95.903609803105	0.120244100053
1	10318	96.023853903158	0.064555071763
1	10323	96.088408974921	0.12733081031
1	10330	96.215739785231	0.028890079534
1	10335	96.244629864765	0.014711863058
1	10341	96.259341727823	0.054375635251
1	10346	96.313717363074	0.098260870532
1	10351	96.411978233606	0.076829697582
1	10358	96.488807931188	0.08705389537
1	10363	96.575861826558	0.071578903626
1	10368	96.647440730184	0.001500026861
1	10370	96.648940757045	0.149905572233
1	10379	96.798846329278	0.106364665085
1	10384	96.905210994363	0.134345542971
1	10389	97.039556537334	0.009558591067
1	10394	97.049115128401	0.162075846154
1	10400	97.211190974555	0.035187862993
1	10405	97.246378837548	0.068221443327
1	10411	97.314600280875	0.010368659505
1	10416	97.32496894038	0.134968522725
1	10422	97.459937463105	0.080757208659
1	10430	97.540694671764	0.025596740929
1	10435	97.566291412693	0.022308185453
1	10441	97.588599598146	0.136693739428
1	10446	97.725293337574	0.069387813226
1	10452	97.7946811508	0.061185228052
1	10457	97.855866378852	0.047659860578
1	10462	97.90352623943	0.055425255704
1	10467	97.958951495134	0.040065179648
1	10472	97.999016674782	0.047794628078
1	10478	98.04681130286	0.07826293028
1	10485	98.12507423314	0.000754843324
1	10487	98.125829076464	0.027584570449
1	10495	98.153413646913	0.024070195713
1	10500	98.177483842626	0.017207267283
1	10505	98.194691109909	0.08949159285
1	10511	98.284182702759	0.00782571861
1	10513	98.292008421369	0.004991524696
1	10518	98.296999946065	0.023932468896
1	10526	98.320932414961	0.017312036616
1	10531	98.338244451577	0.013195182655
1	10536	98.351439634232	0.039867972831
1	10542	98.391307607063	0.036923543901
1	10547	98.428231150964	0.110317465384
1	10554	98.538548616348	0.004028715004
1	10556	98.542577331352	0.031731510995
1	10564	98.574308842347	0.059880412224
1	10569	98.634189254571	0.009944685423
1	10574	98.644133939994	0.033345888717
1	10579	98.677479828711	0.060456003854
1	10587	98.737935832565	0.014723138293
1	10594	98.752658970858	0.11439492514
1	10600	98.867053895998	0.045577315885
1	10605	98.912631211883	0.001664971296
1	10607	98.914296183179	0.051530351574
1	10616	98.965826534753	0.041046708194
1	10624	99.006873242947	0.084356111739
1	10629	99.091229354686	0.050407884231
1	10635	99.141637238917	0.039527763408
1	10640	99.181165002325	0.012497319987
1	10645	99.193662322312	0.033823490902
1	10651	99.227485813214	0.054607073178
1	10656	99.282092886392	0.002464273282
1	10658	99.284557159674	0.004770095655
1	10660	99.289327255329	0.006859663112
1	10665	99.296186918441	0.09387633032
1	10678	99.390063248761	0.000220445503
1	10680	99.390283694264	0.002148849374
1	10682	99.392432543638	0.111722469703
1	10693	99.504155013341	0.161293401815
1	10701	99.665448415156	0.012154279234
1	10706	99.67760269439	0.09259982194
1	10712	99.77020251633	0.165606806826
1	10720	99.935809323156	0.012458040055
1	10725	99.948267363211	0.003051346819
1	10727	99.95131871003	0.006687147448
1	10732	99.958005857478	0.015230813864
1	10740	99.973236671342	0.025087087745
1	10745	99.998323759087	0.142716827078
1	10752	100.141040586165	0.101713028745
1	10757	100.24275361491	0.002787839182
1	10759	100.245541454092	0.01746622585
1	10767	100.263007679942	0.043498733683
1	10772	100.306506413625	0.051149734607
1	10779	100.357656148232	0.093314639173
1	10786	100.450970787405	0.048372844934
1	10791	100.499343632339	0.065981872549
1	10796	100.565325504888	0.016305806241
1	10801	100.581631311129	0.014014466713
1	10806	100.595645777842	0.013557913269
1	10811	100.609203691111	0.155839957377
1	10818	100.765043648488	0.115879071166
1	10825	100.880922719654	0.035157691388
1	10830	100.916080411042	0.099375630766
1	10837	101.015456041808	0.043019139288
1	10842	101.058475181096	0.006980343655
1	10844	101.065455524751	0.171208001105
1	10857	101.236663525856	0.13356815517
1	10864	101.370231681026	0.016443765241
1	10869	101.386675446267	0.01808957963
1	10874	101.404765025897	0.254330291932
1	10882	101.659095317829	0.008824049977
1	10887	101.667919367806	0.008217440523
1	10892	101.676136808329	0.074185291672
1	10898	101.750322100001	0.055665032825
1	10903	101.805987132826	0.011711682333
1	10908	101.817698815159	0.00058759061
1	10910	101.818286405769	0.226852445027
1	10920	102.045138850796	0.033383425301
1	10925	102.078522276097	0.011449840306
1	10930	102.089972116403	0.048614557195
1	10935	102.138586673598	0.038297665762
1	10940	102.17688433936	0.156111410148
1	10946	102.332995749508	0.045846882149
1	10951	102.378842631657	0.010993622312
1	10956	102.389836253969	0.062257243553
1	10961	102.452093497522	0.06007838774
1	10967	102.512171885262	0.130730839283
1	10974	102.642902724545	0.011151988459
1	10979	102.654054713004	0.002025513673
1	10981	102.656080226677	0.012276505258
1	10986	102.668356731935	0.011913672054
1	10994	102.680270403989	0.069541853813
1	10999	102.749812257802	0.030148075562
1	11004	102.779960333364	0.110066113961
1	11009	102.890026447325	0.014764695089
1	11014	102.904791142414	0.032201629133
1	11019	102.936992771547	0.077934041634
1	11024	103.014926813181	0.003973392307
1	11026	103.018900205488	0.091115666392
1	11034	103.11001587188	0.034192711534
1	11039	103.144208583414	0.0481431162
1	11044	103.192351699614	0.06139475036
1	11049	103.253746449974	0.034316457066
1	11054	103.28806290704	0.003313679591
1	11056	103.291376586631	0.001584991618
[...]
19	32594	306.191454039091	3.4548763682718
19	32918	309.646330407363	4.6229788099722
19	33400	314.269309217335	1.7281742342759
19	33663	315.997483451611	1.6585460197437
19	33857	317.656029471355	1.1976039569669
19	33962	318.853633428322	2.484219891626
19	34199	321.337853319948	1.1218286768298
19	34302	322.459681996778	1.1366351254894
19	34419	323.596317122267	1.7774653265382
19	34676	325.373782448805	0.11052115258126
19	34677	325.484303601386	0.14407923513607
19	34690	325.628382836522	0.41786867214702
19	34709	326.046251508669	0.11517315176928
19	34726	326.161424660438	0.34988792229957
19	34779	326.511312582738	4.2171305697607
19	35221	330.728443152499	0.25671007389094
19	35250	330.98515322639	1.4338371681136
19	35410	332.418990394504	3.7738667694593
19	35839	336.192857163963	1.5474492891482
19	35992	337.740306453111	1.2789614315556
19	36119	339.019267884667	7.7051242150039
19	36898	346.724392099671	0.27956935141076
19	36918	347.003961451082	0.0097535277281775
19	36919	347.01371497881	0.20809578763645
19	36950	347.221810766446	0.86742099726564
19	37037	348.089231763712	2.0451289584841
19	37262	350.134360722196	3.0070052733004
19	37637	353.141365995496	0.8287964912896
19	37768	353.970162486786	0.82847097945059
19	37859	354.798633466237	5.8189686805026
19	38591	360.61760214674	0.065274646247026
19	38597	360.682876792987	2.2848092749469
19	38805	362.967686067934	0.89964533548422
19	38909	363.867331403418	0.023291262804916
19	38912	363.890622666223	1.2449448021282
19	39006	365.135567468351	2.5273913270533
19	39211	367.662958795404	1.3709834603827
19	39371	369.033942255787	1.3126319924111
19	39495	370.346574248198	0.6152595541229
19	39529	370.961833802321	0.92240163968239
19	39625	371.884235442003	5.0222302070453
19	40110	376.906465649048	1.7363122933236
19	40276	378.642777942372	0.84120330471424
19	40385	379.483981247086	5.4377043032285
19	40877	384.921685550314	0.071498801209467
19	40888	384.993184351523	2.2786291154422
19	41126	387.271813466965	1.3922605388332
19	41221	388.664074005798	0.039028491658247
19	41233	388.703102497456	2.1087406310269
19	41503	390.811843128483	0.13122323392996
19	41530	390.943066362413	0.90496773897595
19	41631	391.848034101389	5.1783916130395
19	42114	397.026425714429	3.8796110466812
20	1659	15.106481997283	2.0401928109408
20	1879	17.146674808224	1.1096293378707
20	1964	18.256304146095	0.84002524333053
20	2074	19.096329389426	0.84676212833454
20	2141	19.943091517761	0.99315654008764
20	2253	20.936248057849	0.023764895898677
20	2265	20.960012953748	1.0305208186257
20	2367	21.990533772374	0.80954230176791
20	2435	22.800076074142	7.2147504735316
20	3262	30.014826547674	0.80734536286398
20	3352	30.822171910538	0.80555041655168
20	3417	31.62772232709	0.030135060056818
20	3423	31.657857387147	0.78300534967862
20	3495	32.440862736826	0.33578288770435
20	3529	32.77664562453	0.81056096926189
20	3608	33.587206593792	2.5478724625376
20	3899	36.13507905633	3.3440186404682
20	4191	39.479097696798	3.6101825504979
20	4595	43.089280247296	1.4026160832581
20	4782	44.491896330554	0.44361251505686
20	4807	44.935508845611	0.31873555260157
20	4829	45.254244398213	3.5649562836852
20	5253	48.819200681898	1.3555361056935
20	5414	50.174736787591	1.966072721738
20	5590	52.140809509329	0.64320620784878
20	5670	52.784015717178	0.89352559884996
20	5768	53.677541316028	0.28297947382702
20	5799	53.960520789855	0.74436288036459
20	5843	54.70488367022	1.8782213321581
20	6045	56.583105002378	0.2361287980611
20	6083	56.819233800439	0.053383818118875
20	6085	56.872617618558	0.41703016486817
20	6117	57.289647783426	1.0475233959441
20	6245	58.33717117937	0.07323592756706
20	6257	58.410407106937	0.31085164347235
20	6304	58.721258750409	0.67116321634073
20	6379	59.39242196675	0.24129101988113
20	6392	59.633712986631	0.98580023425142
20	6516	60.619513220882	1.2262411614831
20	6660	61.845754382365	2.2417556589426
20	6890	64.087510041308	0.86112311138069
20	6967	64.948633152689	0.59229194761386
20	7034	65.540925100303	2.9722878677914
20	7368	68.513212968094	0.36121549162461
20	7404	68.874428459719	8.9901546238031
20	8346	77.864583083522	1.022176648904
20	8505	78.886759732426	0.59644585165862
20	8560	79.483205584085	1.4907506091332
20	8735	80.973956193218	0.17603430422855
20	8762	81.149990497447	3.6612619530674
20	9221	84.811252450514	0.29381214791245
20	9256	85.105064598426	0.0070439454955242
20	9260	85.112108543922	0.2935447604037
20	9284	85.405653304326	3.0948458754393
20	9537	88.500499179765	4.9719174777392
20	10033	93.472416657504	1.1245461970616
20	10195	94.596962854566	3.7611533031491
20	10538	98.358116157715	1.7264023311249
20	10751	100.08451848884	0.7065434706546
20	10823	100.791061959495	1.0745683230491
20	10918	101.865630282544	2.6598665776205
20	11206	104.525496860164	2.3809245615892
20	11428	106.906421421753	0.3345785773407
20	11468	107.240999999094	0.45479274723377
20	11495	107.695792746328	2.3542904112902
20	11733	110.050083157618	2.8018321631124
20	12046	112.85191532073	0.36779962131204
20	12087	113.219714942042	2.9597751635922
20	12398	116.179490105634	2.1026275627855
20	12599	118.28211766842	0.179987831572
20	12622	118.462105499992	0.97541362499834
20	12727	119.43751912499	1.1010807806827
20	12825	120.538599905673	4.8925268836569
20	13425	125.43112678933	3.9524006572132
20	13803	129.383527446543	0.35727910461099
20	13832	129.740806551154	0.1954421621472
20	13859	129.936248713301	0.47111469710895
20	13900	130.40736341041	0.02085930021374
20	13901	130.428222710624	0.64094301289534
20	13979	131.069165723519	0.0055307864854465
20	13980	131.074696510004	0.62184073895095
20	14065	131.696537248955	1.7195738627273
20	14245	133.416111111682	1.8968024188281
20	14464	135.31291353051	1.1279971155423
20	14558	136.440910646052	1.1245595963292
20	14667	137.565470242381	0.24542052207359
20	14676	137.810890764455	0.33497945548269
20	14731	138.145870219938	1.6031591556373
20	14866	139.749029375575	3.74112975357
20	15182	143.490159129145	0.12128396107864
20	15211	143.611443090224	3.9998866409687
20	15600	147.611329731193	0.43362279613465
20	15647	148.044952527328	0.23446145693945
20	15675	148.279413984267	1.9774030446859
20	15845	150.256817028953	2.0522443209858
20	16089	152.309061349939	0.66588487900454
20	16135	152.974946228944	0.82504504488003
20	16234	153.799991273824	0.63643764795439
20	16281	154.436428921778	1.1857947563332
20	16401	155.622223678111	1.2356575572974
20	16494	156.857881235408	3.1525991235341
20	16852	160.010480358942	0.4344770690213
20	16920	160.444957427963	0.7632528772124
20	17020	161.208210305175	4.0965951572609
20	17470	165.304805462436	2.1239483108312
20	17636	167.428753773267	5.6205661162597
20	18265	173.049319889527	0.76681518526781
20	18342	173.816135074795	0.89886851243645
20	18457	174.715003587231	4.978855365133
20	19016	179.693858952364	2.7212824057195
20	19363	182.415141358084	1.9580305395449
20	19524	184.373171897629	2.1516693209792
20	19747	186.524841218608	0.6805735999774
20	19870	187.205414818585	5.11257998192
20	20459	192.317994800505	2.6872796249117
20	20785	195.005274425417	2.1636337463504
20	21006	197.168908171767	3.2237347003061
20	21287	200.392642872073	6.5091095344075
20	21982	206.901752406481	0.92819975481129
20	22083	207.829952161292	4.1840219237032
20	22503	212.013974084995	0.07533887264575
20	22504	212.089312957641	15.545605282989
20	24042	227.63491824063	0.93349900141361
20	24123	228.568417242044	1.6369460468096
20	24297	230.205363288854	1.5709354267376
20	24511	231.776298715592	3.689706413638
20	24946	235.46600512923	6.3215026999858
20	25561	241.787507829216	3.1568490386469
20	25880	244.944356867863	0.070671187557157
20	25895	245.01502805542	1.2584601854759
20	26041	246.273488240896	0.60136348679649
20	26120	246.874851727692	0.21892343309171
20	26137	247.093775160784	0.78820504558556
20	26224	247.88198020637	1.8331732454356
20	26402	249.715153451806	1.2309369824619
20	26503	250.946090434268	1.7958839933184
20	26794	252.741974427586	1.0394890072168
20	26873	253.781463434803	0.49502643787598
20	26919	254.276489872679	3.9237038074303
20	27369	258.200193680109	2.200599705397
20	27605	260.400793385506	1.0467005943101
20	27705	261.447493979816	0.76526199601824
20	27772	262.212755975834	0.17482500084666
20	27800	262.387580976681	0.020594045676487
20	27801	262.408175022357	4.2289667279713
20	28310	266.637141750328	0.45901935681138
20	28369	267.096161107139	0.47287113177354
20	28444	267.569032238913	0.2065955143469
20	28458	267.77562775326	2.254288699118
20	28643	270.029916452378	0.19418498019006
20	28657	270.224101432568	1.0983619188675
20	28748	271.322463351436	1.4795772467454
20	28913	272.802040598181	1.2327143999981
20	29025	274.034754998179	0.38646268248425
20	29084	274.421217680663	2.76890837587
20	29454	277.190126056533	1.1025644690235
20	29592	278.292690525557	0.057245814722296
20	29598	278.349936340279	1.9090868428991
20	29802	280.259023183178	0.52228663298957
20	29897	280.781309816168	0.63264587930526
20	29959	281.413955695473	2.5546873939348
20	30267	283.968643089408	1.7619459140563
20	30426	285.730589003464	0.070274921798921
20	30427	285.800863925263	4.4287676262721
20	30857	290.229631551535	0.17851031669074
20	30879	290.408141868226	6.5384355358188
20	31663	296.946577404045	0.016916475524257
20	31664	296.963493879569	2.9521581673669
20	31948	299.915652046936	0.15458304857193
20	31957	300.070235095508	0.035846574968687
20	31958	300.106081670477	1.2943714494383
20	32083	301.400453119915	4.5704368574742
20	32577	305.970889977389	3.0285622031912
20	32867	308.99945218058	6.4964277718811
20	33590	315.495879952461	1.088453418127
20	33727	316.584333370588	2.0881510793151
20	33945	318.672484449903	1.1403614677762
20	34056	319.812845917679	4.8389908892732
20	34566	324.651836806952	2.2689746678838
20	34838	326.920811474836	2.3738145633576
20	35083	329.294626038194	2.4358671245635
20	35355	331.730493162757	1.3843206604409
20	35502	333.114813823198	0.49359899580721
20	35530	333.608412819005	0.71620662588117
20	35626	334.324619444886	1.4534196324576
20	35798	335.778039077344	12.730627737799
20	37073	348.508666815143	1.2296585185632
20	37225	349.738325333706	3.0028955531175
20	37581	352.741220886824	1.7016359322011
20	37826	354.442856819025	5.8449082602524
20	38549	360.287765079277	2.3082386781232
20	38766	362.5960037574	1.6850616023367
20	38943	364.281065359737	1.9046985645194
20	39100	366.185763924256	0.29120821779145
20	39112	366.476972142047	0.79582890422832
20	39175	367.272801046275	1.0437277540888
20	39278	368.316528800364	9.2958631999646
20	40182	377.612392000329	0.1319477459211
20	40197	377.74433974625	2.010514237688
20	40418	379.754853983938	1.780769476788
20	40576	381.535623460726	0.6365389561877
20	40624	382.172162416914	0.26612074817978
20	40641	382.438283165094	1.0320496108585
20	40728	383.470332775953	1.2267011037028
20	40841	384.697033879656	0.50884357914648
20	40900	385.205877458802	1.04635479687
20	41035	386.252232255672	0.92135441572642
20	41119	387.173586671398	0.39617406926658
20	41149	387.569760740665	1.2279977323667
20	41245	388.797758473032	8.9206314807902
20	42195	397.718389953822	4.6015602895207
21	1965	18.298040816103	0.71141206495995
21	2052	19.009452881063	0.55129337462233
21	2109	19.560746255685	0.90321218376629
21	2210	20.463958439451	1.0502901498616
21	2323	21.514248589313	1.0578649033481
21	2409	22.572113492661	8.234812734759
21	3346	30.80692622742	3.048933304713
21	3646	33.855859532133	1.7472795748356
21	3837	35.603139106969	0.11798497336183
21	3850	35.721124080331	2.7027787064755
21	4114	38.423902786807	2.0283093529866
21	4288	40.452212139794	1.0338714784468
21	4398	41.486083618241	1.6781893827572
21	4602	43.164273000998	2.6146227631208
21	4883	45.778895764119	6.1923987247221
21	5579	51.971294488841	0.48202104689395
21	5629	52.453315535735	2.805141780728
21	5917	55.258457316463	3.8540965287015
21	6341	59.112553845165	0.24737948092948
21	6374	59.359933326094	4.8970080727262
21	6908	64.25694139882	2.4902830717941
21	7185	66.747224470614	6.4180339616167
21	7893	73.165258432231	2.0238076335647
21	8095	75.189066065796	1.9337456843848
21	8250	77.122811750181	1.028111499186
21	8411	78.150923249367	2.7708075416386
21	8730	80.921730791006	0.97386480623376
21	8873	81.89559559724	0.037423216439884
21	8879	81.93301881368	0.54964616735663
21	8979	82.482664981037	4.3661615738797
21	9421	86.848826554917	1.6314693147183
21	9535	88.480295869635	6.933069072865
21	10257	95.4133649425	0.24735042914963
21	10299	95.66071537165	0.50411473138238
21	10328	96.164830103032	4.2261983844984
21	10785	100.39102848753	0.75401321407578
21	10854	101.145041701606	0.10042354864067
21	10862	101.245465250247	0.21276478659594
21	10879	101.458230036843	0.042822142435195
21	10880	101.501052179278	5.0581128520575
21	11406	106.559165031335	1.4666546595763
21	11526	108.025819690911	0.097596564686722
21	11537	108.123416255598	2.7164411698225
21	11844	110.839857425421	0.5151816659071
21	11903	111.355039091328	5.5301186600738
21	12494	116.885157751402	2.4747150679297
21	12718	119.359872819332	4.5691252494101
21	13215	123.928998068742	2.8279366892186
21	13565	126.756934757961	2.2181043345283
21	13740	128.975039092489	0.01022880493284
21	13742	128.985267897422	1.8145131337668
21	13956	130.799781031189	2.5748811264278
21	14239	133.374662157617	3.5792331048864
21	14636	136.953895262503	0.17546628479214
21	14647	137.129361547295	0.58928669371903
21	14673	137.718648241014	6.520827637355
21	15254	144.239475878369	0.67330383520014
21	15333	144.912779713569	0.57814883661027
21	15405	145.490928550179	0.58579819469095
21	15457	146.07672674487	0.62719945343785
21	15512	146.703926198308	0.68109639987657
21	15573	147.385022598185	4.3721771581831
21	16007	151.757199756368	1.4024806390257
21	16157	153.159680395394	0.74847698496851
21	16243	153.908157380363	0.73969063196317
21	16293	154.647848012326	5.7436586524935
21	16911	160.391506664819	2.0348432307676
21	17157	162.426349895587	1.3477984330073
21	17277	163.774148328594	0.14597787386499
21	17279	163.920126202459	0.10437959667356
21	17287	164.024505799133	0.82367264929895
21	17391	164.848178448432	3.070558721331
21	17686	167.918737169763	0.42615862920913
21	17759	168.344895798972	0.51375974337506
21	17802	168.858655542347	1.4756687651703
21	17947	170.334324307517	0.26581585797004
21	17960	170.600140165487	0.56245680707637
21	18018	171.162596972563	1.400115109692
21	18209	172.562712082255	0.15045996526803
21	18241	172.713172047523	0.45679867230295
21	18272	173.169970719826	0.53148370902397
21	18336	173.70145442885	0.32001098936661
21	18368	174.021465418217	2.4885829236254
21	18671	176.510048341842	0.80950332262388
21	18755	177.319551664466	0.83775168870423
21	18851	178.15730335317	1.2218638848721
21	18988	179.379167238042	2.6262597418428
21	19314	182.005426979885	0.48598080642746
21	19374	182.491407786312	1.6839905378205
21	19513	184.175398324132	1.5538278158233
21	19661	185.729226139955	0.19390012142862
21	19672	185.923126261384	0.68080390336147
21	19763	186.603930164745	0.074915581716507
21	19770	186.678845746462	1.5001113800812
21	19987	188.178957126543	0.032053242820868
21	19993	188.211010369364	1.0889926260952
21	20132	189.300002995459	0.16769824199089
21	20157	189.46770123745	2.433155128871
21	20414	191.900856366321	0.036575462503022
21	20420	191.937431828824	2.2583921107429
21	20694	194.195823939567	0.98693882812454
21	20800	195.182762767692	0.86054182179956
21	20880	196.043304589492	0.4070401976736
21	20936	196.450344787166	0.36797684110482
21	20984	196.818321628271	0.70793173889751
21	21038	197.526253367169	0.40481319309124
21	21057	197.93106656026	5.0160951243762
21	21541	202.947161684636	0.67167832690931
21	21586	203.618840011545	1.8607547125927
21	21805	205.479594724138	1.6649511116974
21	22010	207.144545835835	3.4207875424448
21	22337	210.56533337828	2.3929324038039
21	22592	212.958265782084	0.54975861967476
21	22644	213.508024401759	1.4942241432684
21	22844	215.002248545027	3.5947320252738
21	23181	218.596980570301	0.58535517746575
21	23231	219.182335747767	1.7051327358287
21	23380	220.887468483596	2.8160525493509
21	23607	223.703521032947	0.080684478795109
21	23619	223.784205511742	0.44367116430744
21	23675	224.227876676049	6.568491292003
21	24392	230.796367968052	4.1235919717719
21	24874	234.919959939824	1.3971208354606
21	25027	236.317080775285	0.166472692819
21	25038	236.483553468104	0.70326987445169
21	25122	237.186823342556	0.61709916759888
21	25201	237.803922510155	2.2295018315668
21	25378	240.033424341722	0.94061205022263
21	25490	240.974036391945	4.365614770276
21	25933	245.339651162221	0.8296488548232
21	26040	246.169300017044	0.75960751037998
21	26121	246.928907527424	1.7176395259431
21	26314	248.646547053367	4.4775554117962
21	26814	253.124102465163	1.8834310140912
21	27000	255.007533479254	0.28188224877951
21	27018	255.289415728034	1.6699321230012
21	27220	256.959347851035	2.1654185240108
21	27470	259.124766375046	0.38591488252786
21	27515	259.510681257574	2.3615479834856
21	27737	261.87222924106	3.4746316939941
21	28141	265.346860935054	2.5909602189249
21	28464	267.937821153979	1.4815916136669
21	28579	269.419412767646	0.84342692029789
21	28658	270.262839687944	3.2783673709028
21	28986	273.541207058847	0.44850307589359
21	29011	273.989710134741	3.0487165567877
21	29411	277.038426691529	2.360242455748
21	29712	279.398669147277	1.8671240554225
21	29940	281.265793202699	0.82295398374304
21	30032	282.088747186442	1.7788950994844
21	30255	283.867642285926	1.9952563443744
21	30433	285.8628986303	2.9148262828923
21	30682	288.777724913192	1.5729704352363
21	30868	290.350695348428	0.52134023145202
21	30923	290.87203557988	1.2900325543134
21	31079	292.162068134193	1.8019177681863
21	31277	293.963985902379	0.86647162329976
21	31384	294.830457525679	3.2485856861001
21	31770	298.079043211779	1.4534408027054
21	31907	299.532484014484	2.9870125882383
21	32215	302.519496602722	0.57797345139328
21	32305	303.097470054115	2.627831699762
21	32558	305.725301753877	1.5441941810778
21	32690	307.269495934955	1.6926297139306
21	32860	308.962125648886	1.3467951677702
21	33000	310.308920816656	2.7553461374075
21	33300	313.064266954063	1.1351691214782
21	33398	314.199436075541	3.5920887463913
21	33874	317.791524821932	1.9212340680605
21	34045	319.712758889992	0.11773150289187
21	34057	319.830490392884	2.7285200874827
21	34314	322.559010480367	1.0817586172237
21	34425	323.640769097591	1.9245625378137
21	34683	325.565331635405	0.81641648527475
21	34753	326.38174812068	0.74038795546443
21	34856	327.122136076144	0.3932195845201
21	34889	327.515355660664	3.6569196788926
21	35278	331.172275339557	0.73180018057772
21	35371	331.904075520135	0.012498812143406
21	35375	331.916574332278	0.52826287758811
21	35416	332.444837209866	1.8369724084809
21	35615	334.281809618347	0.10273579476591
21	35632	334.384545413113	1.4029243862965
21	35803	335.78746979941	2.0938177855149
21	36004	337.881287584925	6.0469004315365
21	36661	343.928188016462	3.9183145824545
21	37008	347.846502598917	3.32695942193
21	37385	351.173462020847	2.44695621595
21	37703	353.620418236797	0.87045852407429
21	37837	354.490876760871	2.796152358523
21	38152	357.287029119394	5.524963400203
21	38788	362.811992519597	3.2845979149328
21	39090	366.09659043453	2.0129484416986
21	39255	368.109538876229	0.25492843707001
21	39280	368.364467313299	1.5907329465785
21	39462	369.955200259878	0.52930881411554
21	39498	370.484509073994	1.4158394796714
21	39631	371.900348553665	0.34291639737963
21	39667	372.243264951045	1.4082406728657
21	39785	373.651505623911	0.12295608809325
21	39796	373.774461712004	2.2542162043174
21	40046	376.028677916321	2.8436141631611
21	40299	378.872292079482	0.17117876207063
21	40320	379.043470841553	0.78138132278098
21	40419	379.824852164334	0.23071927047718
21	40426	380.055571434811	0.027152258608856
21	40427	380.08272369342	0.12593679336289
21	40441	380.208660486783	4.1111585579057
21	40808	384.319819044689	0.63515355162079
21	40881	384.95497259631	0.69695316383302
21	40971	385.651925760143	2.35632107613
21	41163	388.008246836273	10.460790658402
21	42269	398.469037494675	1.5770521927629

