version 2
run Nonmonitoring-exponential-597-20210224-17:49:34-27108
attr configname Nonmonitoring-exponential
attr datetime 20210224-17:49:34
attr experiment Nonmonitoring-exponential
attr inifile aerocom.ini
attr iterationvars $0=50
attr iterationvarsf 50-
attr measurement $0=50
attr network Aerocom
attr processid 27108
attr repetition 97
attr replication #97
attr resultdir results
attr runnumber 597
attr seedset 97
param **.t 2s
param **.k 50ms
param **.X 0.05s
param **.m 1s
param **.tDistribution "\"exponential\""
param **.operationMode 1
param **.s "70 byte"
param **.dimPoolMax 10000
param **.dimPoolMin 8000
param **.nDL 16
param **.nA 1
param **.DLMaxCapacity 0
param **.trasmitting false

vector 0 Aerocom.aircraft[0].packetGenerator arrivalTime:vector ETV
attr "" ""
attr source computeArrivalTime
vector 1 Aerocom.aircraft[0].linkSelector waitingTime:vector ETV
attr "" ""
attr source computeWaitingTime
vector 2 Aerocom.aircraft[0].linkSelector queueLength:vector ETV
attr "" ""
attr source computeQueueLength
vector 3 Aerocom.aircraft[0].dataLink[14] actualCapacity:vector ETV
attr "" ""
attr source computeActualCapacity
vector 4 Aerocom.aircraft[0].linkSelector serviceTime:vector ETV
attr "" ""
attr source computeServiceTime
vector 5 Aerocom.aircraft[0].linkSelector responseTime:vector ETV
attr "" ""
attr source computeResponseTime
vector 6 Aerocom.aircraft[0].dataLink[4] tDistribution:vector ETV
attr "" ""
attr source computeTDistribution
vector 7 Aerocom.aircraft[0].dataLink[5] tDistribution:vector ETV
attr "" ""
attr source computeTDistribution
vector 8 Aerocom.aircraft[0].dataLink[13] tDistribution:vector ETV
attr "" ""
attr source computeTDistribution
vector 9 Aerocom.aircraft[0].dataLink[10] tDistribution:vector ETV
attr "" ""
attr source computeTDistribution
vector 10 Aerocom.aircraft[0].dataLink[9] tDistribution:vector ETV
attr "" ""
attr source computeTDistribution
vector 11 Aerocom.aircraft[0].dataLink[8] tDistribution:vector ETV
attr "" ""
attr source computeTDistribution
vector 12 Aerocom.aircraft[0].dataLink[6] tDistribution:vector ETV
attr "" ""
attr source computeTDistribution
vector 13 Aerocom.aircraft[0].dataLink[15] tDistribution:vector ETV
attr "" ""
attr source computeTDistribution
vector 14 Aerocom.aircraft[0].dataLink[2] tDistribution:vector ETV
attr "" ""
attr source computeTDistribution
vector 15 Aerocom.aircraft[0].dataLink[12] tDistribution:vector ETV
attr "" ""
attr source computeTDistribution
vector 16 Aerocom.aircraft[0].dataLink[0] tDistribution:vector ETV
attr "" ""
attr source computeTDistribution
vector 17 Aerocom.aircraft[0].dataLink[1] tDistribution:vector ETV
attr "" ""
attr source computeTDistribution
vector 18 Aerocom.aircraft[0].dataLink[3] tDistribution:vector ETV
attr "" ""
attr source computeTDistribution
vector 19 Aerocom.aircraft[0].dataLink[7] tDistribution:vector ETV
attr "" ""
attr source computeTDistribution
vector 20 Aerocom.aircraft[0].dataLink[14] tDistribution:vector ETV
attr "" ""
attr source computeTDistribution
vector 21 Aerocom.aircraft[0].dataLink[11] tDistribution:vector ETV
attr "" ""
attr source computeTDistribution
0	1072	10.002157468238	0.041475304124
0	1077	10.043632772362	0.020907000646
0	1082	10.064539773008	0.00573405207
0	1084	10.070273825078	0.040189101058
0	1095	10.110462926136	0.008380929741
0	1100	10.118843855877	0.058119419602
0	1105	10.176963275479	0.006176502289
0	1107	10.183139777768	0.063810003734
0	1116	10.246949781502	0.082875146156
0	1121	10.329824927658	0.020541904853
0	1126	10.350366832511	0.018644786437
0	1131	10.369011618948	0.007529432238
0	1136	10.376541051186	0.069466911538
0	1141	10.446007962724	0.012563283988
0	1146	10.458571246712	0.041440701422
0	1152	10.500011948134	0.042259949777
0	1157	10.542271897911	0.003288095
0	1159	10.545559992911	0.041998807534
0	1167	10.587558800445	0.087065420753
0	1172	10.674624221198	0.023582358825
0	1177	10.698206580023	0.094521629472
0	1182	10.792728209495	0.022281900534
0	1187	10.815010110029	0.020227282646
0	1193	10.835237392675	0.018167018114
0	1198	10.853404410789	0.153289933014
0	1204	11.006694343803	0.117411515466
0	1212	11.124105859269	0.081016435281
0	1217	11.20512229455	0.01600428926
0	1222	11.22112658381	0.028574522665
0	1227	11.249701106475	0.028801726719
0	1232	11.278502833194	0.077966369764
0	1238	11.356469202958	0.085157975529
0	1243	11.441627178487	0.033010826711
0	1248	11.474638005198	0.047099948472
0	1253	11.52173795367	0.024537659149
0	1258	11.546275612819	0.001799041969
0	1260	11.548074654788	0.000514404634
0	1262	11.548589059422	0.004232261125
0	1264	11.552821320547	0.023454100727
0	1278	11.576275421274	0.098497480845
0	1284	11.674772902119	0.126203399965
0	1290	11.800976302084	0.165008629435
0	1297	11.965984931519	0.074639006234
0	1302	12.040623937753	0.006672610682
0	1304	12.047296548435	0.0111672391
0	1313	12.058463787535	0.148395565183
0	1319	12.206859352718	0.078550084618
0	1325	12.285409437336	0.006166380644
0	1328	12.29157581798	0.046522304534
0	1336	12.338098122514	0.014747277604
0	1341	12.352845400118	0.009062596513
0	1346	12.361907996631	0.040509647167
0	1351	12.402417643798	0.182770414794
0	1358	12.585188058592	0.025633179164
0	1363	12.610821237756	0.034431831936
0	1368	12.645253069692	0.043313661532
0	1373	12.688566731224	0.008035462599
0	1378	12.696602193823	0.008789632813
0	1383	12.705391826636	0.072954227201
0	1390	12.778346053837	0.001239568262
0	1392	12.779585622099	0.030158052632
0	1400	12.809743674731	0.017709900445
0	1405	12.827453575176	0.046244214196
0	1411	12.873697789372	0.000708561209
0	1413	12.874406350581	0.07391962392
0	1421	12.948325974501	0.088201748172
0	1427	13.036527722673	0.129397756433
0	1432	13.165925479106	0.111353918866
0	1437	13.277279397972	0.067436293591
0	1444	13.344715691563	0.052208094347
0	1450	13.39692378591	0.026154435888
0	1456	13.423078221798	0.144658262118
0	1462	13.567736483916	0.013550434259
0	1468	13.581286918175	0.062163649364
0	1473	13.643450567539	0.102346643926
0	1478	13.745797211465	0.004583315344
0	1480	13.750380526809	0.040185606922
0	1491	13.790566133731	0.029540176001
0	1496	13.820106309732	0.046718299207
0	1502	13.866824608939	0.098485694113
0	1507	13.965310303052	0.054265023843
0	1512	14.019575326895	0.018842977842
0	1517	14.038418304737	0.113319573039
0	1522	14.151737877776	0.023193828796
0	1528	14.174931706572	0.043331906636
0	1534	14.218263613208	0.01079036289
0	1539	14.229053976098	0.248428702078
0	1545	14.477482678176	0.012878997373
0	1550	14.490361675549	0.00826762816
0	1555	14.498629303709	0.006369376261
0	1557	14.50499867997	0.095047024852
0	1566	14.600045704822	0.018659337878
0	1571	14.6187050427	0.141584550748
0	1579	14.760289593448	0.003545303788
0	1581	14.763834897236	0.15764446191
0	1589	14.921479359146	0.160858160478
0	1595	15.082337519624	0.005650734688
0	1597	15.087988254312	0.030188911217
0	1605	15.118177165529	0.068170426394
0	1611	15.186347591923	0.104739979545
0	1617	15.291087571468	0.023036913274
0	1623	15.314124484742	0.038332273774
0	1628	15.352456758516	0.043003487267
0	1633	15.395460245783	0.050328314544
0	1640	15.445788560327	0.009639982192
0	1645	15.455428542519	0.084375366021
0	1651	15.53980390854	0.013151946493
0	1656	15.552955855033	0.108471495623
0	1662	15.661427350656	0.011222147841
0	1667	15.672649498497	0.014942679134
0	1672	15.687592177631	0.068039600359
0	1679	15.75563177799	0.001385416952
0	1681	15.757017194942	0.09355599344
0	1690	15.850573188382	0.01880931923
0	1695	15.869382507612	0.020491569138
0	1700	15.88987407675	0.066865515994
0	1705	15.956739592744	0.142259322307
0	1710	16.098998915051	0.092727750522
0	1715	16.191726665573	0.005101901704
0	1717	16.196828567277	0.046699698168
0	1728	16.243528265445	0.050364576363
0	1733	16.293892841808	0.069629707008
0	1739	16.363522548816	0.02192735406
0	1744	16.385449902876	0.074503026118
0	1749	16.459952928994	0.014805214078
0	1754	16.474758143072	0.018892485665
0	1759	16.493650628737	0.019171199594
0	1765	16.512821828331	0.01800514752
0	1770	16.530826975851	0.026484939923
0	1775	16.557311915774	0.003430942044
0	1777	16.560742857818	0.03278741433
0	1785	16.593530272148	0.014397667692
0	1790	16.60792793984	0.008371531335
0	1795	16.616299471175	0.021281938874
0	1800	16.637581410049	0.002064708908
0	1802	16.639646118957	0.005898562423
0	1807	16.64554468138	0.034278292007
0	1815	16.679822973387	0.050515387242
0	1820	16.730338360629	0.068452879098
0	1825	16.798791239727	0.038909198291
0	1830	16.837700438018	0.063737344526
0	1836	16.901437782544	0.046606795449
0	1841	16.948044577993	0.008192301949
0	1846	16.956236879942	0.016245026631
0	1852	16.972481906573	0.006436521994
0	1854	16.978918428567	0.011502442793
0	1863	16.99042087136	0.04416713118
0	1868	17.03458800254	0.001092650316
0	1870	17.035680652856	0.024007343708
0	1878	17.059687996564	0.005965276897
0	1880	17.065653273461	0.023353429582
0	1888	17.089006703043	0.002457132402
0	1890	17.091463835445	0.015810024749
0	1898	17.107273860194	0.06689054741
0	1903	17.174164407604	0.013033757356
0	1909	17.18719816496	0.025933632005
0	1914	17.213131796965	0.002116978805
0	1916	17.21524877577	0.062161329213
0	1924	17.277410104983	0.000175064153
0	1926	17.277585169136	0.014490762624
0	1931	17.29207593176	0.273109320999
0	1940	17.565185252759	0.01094563491
0	1945	17.576130887669	0.114830048882
0	1950	17.690960936551	0.002467715648
0	1952	17.693428652199	0.01495912401
0	1960	17.708387776209	0.008943654899
0	1965	17.717331431108	0.012896862801
0	1970	17.730228293909	0.016895177799
0	1975	17.747123471708	0.032466827437
0	1980	17.779590299145	0.018742551049
0	1985	17.798332850194	0.053992138556
0	1991	17.85232498875	0.012682853021
0	1996	17.865007841771	0.031073086783
0	2001	17.896080928554	0.035129995517
0	2007	17.931210924071	0.00737229049
0	2009	17.938583214561	0.023445288589
0	2018	17.96202850315	0.031713479486
0	2023	17.993741982636	0.104942621807
0	2029	18.098684604443	0.249837597484
0	2038	18.348522201927	0.023008982279
0	2043	18.371531184206	0.043168768873
0	2048	18.414699953079	0.071851633427
0	2053	18.486551586506	0.024722850606
0	2059	18.511274437112	0.213006870491
0	2067	18.724281307603	0.071902905467
0	2072	18.79618421307	0.025219820367
0	2078	18.821404033437	0.011889227727
0	2083	18.833293261164	0.123801476566
0	2089	18.95709473773	0.000424945323
0	2091	18.957519683053	0.000946450124
0	2093	18.958466133177	0.008792485125
0	2098	18.967258618302	0.051658356812
0	2110	19.018916975114	0.017094970151
0	2115	19.036011945265	0.109706864496
0	2120	19.145718809761	0.020517123746
0	2125	19.166235933507	0.059218522355
0	2130	19.225454455862	0.04454488047
0	2135	19.269999336332	0.035542670172
0	2140	19.305542006504	0.004736214818
0	2142	19.310278221322	0.015176364473
0	2150	19.325454585795	0.025149738094
0	2156	19.350604323889	0.00950185488
0	2161	19.360106178769	0.020060073106
0	2166	19.380166251875	0.059661486858
0	2171	19.439827738733	0.036807072373
0	2176	19.476634811106	0.067561642673
0	2181	19.544196453779	0.018993785213
0	2186	19.563190238992	0.069423572471
0	2192	19.632613811463	0.071692494921
0	2197	19.704306306384	0.002079995885
0	2199	19.706386302269	0.04886353193
0	2207	19.755249834199	0.025568191827
0	2212	19.780818026026	0.120874413119
0	2217	19.901692439145	0.079155115963
0	2222	19.980847555108	0.048768182453
0	2228	20.029615737561	0.009360521199
0	2233	20.03897625876	0.120151078645
0	2238	20.159127337405	0.004607836923
0	2240	20.163735174328	0.033607301297
0	2248	20.197342475625	0.020989007797
0	2254	20.218331483422	0.063760391683
0	2259	20.282091875105	0.117527036452
0	2264	20.399618911557	0.010211670018
0	2269	20.409830581575	0.040131144755
0	2274	20.44996172633	0.029722888679
0	2279	20.479684615009	0.033894597526
0	2285	20.513579212535	0.401558462448
0	2295	20.915137674983	0.046441396833
0	2300	20.961579071816	0.183692348997
0	2306	21.145271420813	0.054708602903
0	2311	21.199980023716	0.078941612748
0	2316	21.278921636464	0.044143756582
0	2321	21.323065393046	0.007328679247
0	2324	21.330394072293	0.025820761916
0	2332	21.356214834209	0.168347934225
0	2338	21.524562768434	0.045940141265
0	2344	21.570502909699	0.201351054759
0	2352	21.771853964458	0.015782208296
0	2357	21.787636172754	0.000141954425
0	2359	21.787778127179	0.03426584734
0	2367	21.822043974519	0.002972788079
0	2369	21.825016762598	0.006113834389
0	2374	21.831130596987	0.016514450607
0	2382	21.847645047594	0.077100490696
0	2387	21.92474553829	0.028611572077
0	2392	21.953357110367	0.006170471916
0	2394	21.959527582283	0.072747153438
0	2402	22.032274735721	0.012555965563
0	2407	22.044830701284	0.026488043981
0	2412	22.071318745265	0.001447810265
0	2414	22.07276655553	0.015713553917
0	2422	22.088480109447	0.007171069954
0	2424	22.095651179401	0.05060437329
0	2433	22.146255552691	0.083674944979
0	2440	22.22993049767	0.005637875303
0	2442	22.235568372973	0.112471991698
0	2450	22.348040364671	0.032599729308
0	2456	22.380640093979	0.017403623308
0	2461	22.398043717287	0.04614141899
0	2467	22.444185136277	0.010107988455
0	2472	22.454293124732	0.062976717073
0	2478	22.517269841805	0.059258821375
0	2483	22.57652866318	0.024644879369
0	2490	22.601173542549	0.017647416585
0	2495	22.618820959134	0.034350158243
0	2500	22.653171117377	0.040107561505
0	2505	22.693278678882	0.048452070316
0	2510	22.741730749198	0.15990552839
0	2517	22.901636277588	0.081991259457
0	2522	22.983627537045	0.011401352193
0	2527	22.995028889238	0.002666315804
0	2529	22.997695205042	0.011858644996
0	2534	23.009553850038	0.018586307829
0	2542	23.028140157867	0.099062143601
0	2548	23.127202301468	0.021371909136
0	2553	23.148574210604	0.057719311774
0	2558	23.206293522378	0.03435075807
0	2563	23.240644280448	0.009248065008
0	2568	23.249892345456	0.034172208416
0	2573	23.284064553872	0.001775218208
0	2575	23.28583977208	0.093764541775
0	2584	23.379604313855	0.017042624358
0	2589	23.396646938213	0.010337266991
0	2594	23.406984205204	0.024064905115
0	2599	23.431049110319	0.058391670173
0	2604	23.489440780492	0.040078054858
0	2611	23.52951883535	0.055939584508
0	2617	23.585458419858	0.001959153898
0	2619	23.587417573756	0.030825676736
0	2628	23.618243250492	0.051429120641
0	2633	23.669672371133	0.053761663783
0	2639	23.723434034916	0.087529615321
0	2645	23.810963650237	0.013917503094
0	2650	23.824881153331	0.071615796574
0	2656	23.896496949905	0.094365959225
0	2661	23.99086290913	0.05918883612
0	2666	24.05005174525	0.07796896507
0	2671	24.12802071032	0.045382087145
0	2676	24.173402797465	0.017854555629
0	2681	24.191257353094	0.080057348198
0	2686	24.271314701292	0.000227931203
0	2688	24.271542632495	0.011334882514
0	2693	24.282877515009	0.028211898277
0	2702	24.311089413286	0.052790452372
0	2707	24.363879865658	0.241757872502
0	2713	24.60563773816	0.039571974551
0	2718	24.645209712711	0.006456422054
0	2720	24.651666134765	0.000915456791
0	2722	24.652581591556	0.022994246742
0	2736	24.675575838298	0.042676372886
0	2741	24.718252211184	0.146081611968
0	2747	24.864333823152	0.048759017716
0	2752	24.913092840868	0.022593422999
0	2757	24.935686263867	0.04035528119
0	2763	24.976041545057	0.064858585989
0	2768	25.040900131046	0.047136128246
0	2774	25.088036259292	0.014006300952
0	2779	25.102042560244	0.043820562841
0	2784	25.145863123085	0.031488855635
0	2790	25.17735197872	0.025992530777
0	2795	25.203344509497	0.008724532839
0	2800	25.212069042336	0.041503141788
0	2807	25.253572184124	0.054020633506
0	2813	25.30759281763	0.050934143843
0	2819	25.358526961473	0.023560444999
0	2824	25.382087406472	0.02922195447
0	2829	25.411309360942	0.02921083081
0	2834	25.440520191752	0.119164654087
0	2839	25.559684845839	0.005020134897
0	2841	25.564704980736	0.016171014806
0	2849	25.580875995542	0.111318537984
0	2854	25.692194533526	0.123900139686
0	2862	25.816094673212	0.010225482786
0	2867	25.826320155998	0.007287645268
0	2869	25.833607801266	0.044186654723
0	2877	25.877794455989	0.065285465128
0	2882	25.943079921117	0.071258245058
0	2887	26.014338166175	0.104075841441
0	2895	26.118414007616	0.010529554443
0	2900	26.128943562059	0.040668679858
0	2905	26.169612241917	0.040254263556
0	2910	26.209866505473	0.00693831196
0	2912	26.216804817433	0.011142684748
0	2920	26.227947502181	0.04555438534
0	2925	26.273501887521	0.012874609789
0	2930	26.28637649731	0.128177406599
0	2936	26.414553903909	0.063853641837
0	2941	26.478407545746	0.094522379361
0	2946	26.572929925107	0.01342218382
0	2951	26.586352108927	0.014793530017
0	2956	26.601145638944	0.147847200212
0	2962	26.748992839156	0.003901763168
0	2964	26.752894602324	0.010393475982
0	2969	26.763288078306	0.212936839659
0	2981	26.976224917965	0.137845029992
0	2986	27.114069947957	0.07882083347
0	2991	27.192890781427	0.011004163953
0	2996	27.20389494538	0.087189407771
0	3001	27.291084353151	0.125787825662
0	3007	27.416872178813	0.030082348875
0	3012	27.446954527688	0.00475364325
0	3014	27.451708170938	0.018249859998
0	3022	27.469958030936	0.039636485334
0	3027	27.50959451627	0.011709118259
0	3032	27.521303634529	0.038933343938
0	3039	27.560236978467	0.023958668298
0	3044	27.584195646765	0.13835368543
0	3050	27.722549332195	0.070120345127
0	3056	27.792669677322	0.035595089734
0	3061	27.828264767056	0.009411788879
0	3066	27.837676555935	0.248010779094
0	3074	28.085687335029	0.031036704
0	3079	28.116724039029	0.067596284518
0	3084	28.184320323547	0.082400010386
0	3089	28.266720333933	0.096175132802
0	3095	28.362895466735	0.006462562674
0	3097	28.369358029409	0.09624494975
0	3105	28.465602979159	0.001797303189
0	3107	28.467400282348	0.018320245441
0	3116	28.485720527789	0.038116547968
0	3121	28.523837075757	0.042007133584
0	3127	28.565844209341	0.0686099982
0	3133	28.634454207541	0.031353435434
0	3138	28.665807642975	0.027154325536
0	3143	28.692961968511	0.030765326111
0	3148	28.723727294622	0.016803114154
0	3153	28.740530408776	0.020557008672
0	3158	28.761087417448	0.152431471598
0	3164	28.913518889046	0.047469657946
0	3169	28.960988546992	0.023321483836
0	3174	28.984310030828	0.092462573049
0	3179	29.076772603877	0.012694356368
0	3185	29.089466960245	0.020169727511
0	3190	29.109636687756	0.033240365637
0	3195	29.142877053393	0.137805463161
0	3200	29.280682516554	0.046614837085
0	3206	29.327297353639	0.114495102147
0	3212	29.441792455786	0.026643109777
0	3217	29.468435565563	0.010409192262
0	3222	29.478844757825	0.047223796009
0	3227	29.526068553834	0.010677901172
0	3232	29.536746455006	0.013728084772
0	3237	29.550474539778	0.009100085621
0	3242	29.559574625399	0.0725496044
0	3247	29.632124229799	0.07960029282
0	3252	29.711724522619	0.053915914846
0	3257	29.765640437465	0.157188804449
0	3266	29.922829241914	0.035683584892
0	3271	29.958512826806	0.079218229468
0	3276	30.037731056274	0.04567783396
0	3281	30.083408890234	0.115675177128
0	3286	30.199084067362	0.01095944433
0	3292	30.210043511692	0.005124830046
0	3294	30.215168341738	0.021497896322
0	3302	30.23666623806	0.19458954594
0	3308	30.431255784	0.010852289739
0	3313	30.442108073739	0.243214674806
0	3318	30.685322748545	0.005718724176
0	3320	30.691041472721	0.001531509087
0	3322	30.692572981808	0.043917352765
0	3333	30.736490334573	0.058170205026
0	3338	30.794660539599	0.006524242882
0	3340	30.801184782481	0.002653893111
0	3345	30.803838675592	0.002794061949
0	3347	30.806632737541	0.198101873802
0	3360	31.004734611343	0.107044557041
0	3366	31.111779168384	0.015457989086
0	3371	31.12723715747	0.163965482762
0	3377	31.291202640232	0.11160536759
0	3384	31.402808007822	0.003970019581
0	3386	31.406778027403	0.007742662454
0	3391	31.414520689857	0.026642038686
0	3399	31.441162728543	0.014248336008
0	3404	31.455411064551	0.003996792579
0	3406	31.45940785713	0.002743364707
0	3408	31.462151221837	0.014039227496
0	3416	31.476190449333	0.001729265835
0	3418	31.477919715168	0.141510284122
0	3430	31.61942999929	0.128971580422
0	3437	31.748401579712	0.204137435503
0	3442	31.952539015215	0.09950311802
0	3447	32.052042133235	0.002377504884
0	3449	32.054419638119	0.141768203205
0	3458	32.196187841324	0.061757633517
0	3464	32.257945474841	0.056274531072
0	3470	32.314220005913	0.087991691925
0	3476	32.402211697838	0.085113260071
0	3482	32.487324957909	0.110124360299
0	3490	32.597449318208	0.058724301855
0	3495	32.656173620063	0.010884440944
0	3500	32.667058061007	0.066826717283
0	3505	32.73388477829	0.059911516499
0	3510	32.793796294789	0.01271369628
0	3515	32.806509991069	0.00590619416
0	3517	32.812416185229	0.087275562581
0	3526	32.89969174781	0.008203589509
0	3531	32.907895337319	0.077725562802
0	3537	32.985620900121	0.051989299201
0	3542	33.037610199322	0.042983702788
0	3547	33.08059390211	0.151902649127
0	3554	33.232496551237	0.047661330518
0	3559	33.280157881755	0.000576043914
0	3561	33.280733925669	0.001563869128
0	3563	33.282297794797	0.005247908715
0	3565	33.287545703512	0.081934524729
0	3579	33.369480228241	0.0016885902
0	3581	33.371168818441	0.025889721366
0	3590	33.397058539807	0.115524321141
0	3595	33.512582860948	0.100991222562
0	3600	33.61357408351	0.0078214161
0	3606	33.62139549961	0.157325558702
0	3613	33.778721058312	0.017634900812
0	3618	33.796355959124	0.094451253008
0	3624	33.890807212132	0.029881891483
0	3629	33.920689103615	0.020719883176
0	3634	33.941408986791	0.009469953197
0	3639	33.950878939988	0.012141194242
0	3644	33.96302013423	0.009114661141
0	3649	33.972134795371	0.036309060819
0	3654	34.00844385619	0.070996749073
0	3659	34.079440605263	0.015618059606
0	3664	34.095058664869	0.004599720276
0	3666	34.099658385145	0.026653319705
0	3675	34.12631170485	0.052222496747
0	3680	34.178534201597	0.03921835181
0	3686	34.217752553407	0.000183376811
0	3688	34.217935930218	0.110735538574
0	3697	34.328671468792	0.018847060056
0	3702	34.347518528848	0.019151486815
0	3708	34.366670015663	0.106007437332
0	3715	34.472677452995	0.010572319405
0	3720	34.4832497724	0.139063783957
0	3726	34.622313556357	0.028170001659
0	3731	34.650483558016	0.063633369715
0	3736	34.714116927731	0.107447051484
0	3743	34.821563979215	0.010310274598
0	3748	34.831874253813	0.067440983777
0	3753	34.89931523759	0.053732979244
0	3758	34.953048216834	0.008716269394
0	3763	34.961764486228	0.017386095088
0	3768	34.979150581316	0.032777452791
0	3773	35.011928034107	0.047151971384
0	3778	35.059080005491	0.033649567016
0	3783	35.092729572507	0.002002074707
0	3785	35.094731647214	0.003783108703
0	3787	35.098514755917	0.06932176941
0	3798	35.167836525327	0.073763732471
0	3804	35.241600257798	0.209129599794
0	3810	35.450729857592	0.089700294071
0	3816	35.540430151663	0.050246002747
0	3821	35.59067615441	0.009114478449
0	3826	35.599790632859	0.028031011375
0	3831	35.627821644234	0.031800439828
0	3836	35.659622084062	0.08931853139
0	3841	35.748940615452	0.044816673189
0	3847	35.793757288641	0.039801258779
0	3852	35.83355854742	0.101013723947
0	3857	35.934572271367	0.02000705361
0	3862	35.954579324977	0.104350772189
0	3868	36.058930097166	0.039472721061
0	3873	36.098402818227	0.007499015935
0	3879	36.105901834162	0.014581433403
0	3884	36.120483267565	0.034016040826
0	3889	36.154499308391	0.026939585621
0	3894	36.181438894012	0.018760935638
0	3899	36.20019982965	0.011478427841
0	3905	36.211678257491	0.068861172271
0	3910	36.280539429762	0.02436654591
0	3915	36.304905975672	0.043446970135
0	3920	36.348352945807	0.033231600911
0	3925	36.381584546718	0.095797676822
0	3930	36.47738222354	0.20157159277
0	3936	36.67895381631	0.018269912313
0	3941	36.697223728623	0.063005644697
0	3946	36.76022937332	0.037498211652
0	3951	36.797727584972	0.130029913623
0	3956	36.927757498595	0.025460851655
0	3961	36.95321835025	0.021175753499
0	3966	36.974394103749	0.014335291881
0	3971	36.98872939563	0.010281399009
0	3976	36.999010794639	0.042724260831
0	3981	37.04173505547	0.041874336926
0	3988	37.083609392396	0.007974254005
0	3993	37.091583646401	0.042740032794
0	3998	37.134323679195	0.000937830181
0	4000	37.135261509376	0.275386303429
0	4009	37.410647812805	0.091840426013
0	4014	37.502488238818	0.035544370058
0	4019	37.538032608876	0.059386836869
0	4025	37.597419445745	0.055306545114
0	4030	37.652725990859	0.025527625472
0	4035	37.678253616331	0.04879302085
0	4040	37.727046637181	0.085211064028
0	4046	37.812257701209	0.058996455598
0	4052	37.871254156807	0.06841033672
0	4058	37.939664493527	0.002974198386
0	4060	37.942638691913	0.069454639
0	4068	38.012093330913	0.028946801579
0	4073	38.041040132492	0.033910855353
0	4078	38.074950987845	0.006460675046
0	4080	38.081411662891	0.13449831687
0	4090	38.215909979761	0.066385919714
0	4096	38.282295899475	0.063819468824
0	4101	38.346115368299	0.118042987575
0	4106	38.464158355874	0.104603998364
0	4111	38.568762354238	0.023322872125
0	4116	38.592085226363	0.063086892033
0	4121	38.655172118396	0.05518055541
0	4126	38.710352673806	0.005080937063
0	4128	38.715433610869	0.000322603974
0	4130	38.715756214843	0.038357693704
0	4141	38.754113908547	0.05631434202
0	4147	38.810428250567	0.022309667678
0	4152	38.832737918245	0.011271424222
0	4158	38.844009342467	0.09146252977
0	4163	38.935471872237	0.038565339694
0	4168	38.974037211931	0.033152422156
0	4174	39.007189634087	0.001843126788
0	4176	39.009032760875	0.014105391903
0	4184	39.023138152778	0.028267487015
0	4189	39.051405639793	0.088892520566
0	4195	39.140298160359	0.016168404485
0	4200	39.156466564844	0.013972028568
0	4205	39.170438593412	0.03407333904
0	4210	39.204511932452	0.023142810242
0	4215	39.227654742694	0.011561465786
0	4221	39.23921620848	0.041168649248
0	4227	39.280384857728	0.059125162843
0	4232	39.339510020571	0.058603604288
0	4238	39.398113624859	0.015132129602
0	4243	39.413245754461	0.020592488404
0	4248	39.433838242865	0.131629402385
0	4253	39.56546764525	0.10437369578
0	4260	39.66984134103	0.123897509436
0	4265	39.793738850466	0.005844135375
0	4267	39.799582985841	0.063340109286
0	4275	39.862923095127	0.087460321082
0	4281	39.950383416209	0.144050903884
0	4288	40.094434320093	0.015127060994
0	4293	40.109561381087	0.041717652195
0	4299	40.151279033282	0.004912979079
0	4301	40.156192012361	0.095043445374
0	4311	40.251235457735	0.10498498794
0	4317	40.356220445675	0.012497078082
0	4322	40.368717523757	0.059205086799
0	4327	40.427922610556	0.016953120919
0	4332	40.444875731475	0.008439473872
0	4337	40.453315205347	0.031847421212
0	4342	40.485162626559	0.048695241213
0	4347	40.533857867772	0.04670639442
0	4352	40.580564262192	0.104838613692
0	4358	40.685402875884	0.00012869064
0	4360	40.685531566524	0.012906215459
0	4366	40.698437781983	0.002136648959
0	4368	40.700574430942	0.006818006124
0	4373	40.707392437066	0.083498512448
0	4384	40.790890949514	0.06490536057
0	4390	40.855796310084	0.047629531491
0	4395	40.903425841575	0.012392001964
0	4400	40.915817843539	0.108050073887
0	4405	41.023867917426	0.062471196401
0	4410	41.086339113827	0.000877655901
0	4412	41.087216769728	0.003562927139
0	4414	41.090779696867	0.013982600002
0	4422	41.104762296869	0.002509950279
0	4424	41.107272247148	0.042869886863
0	4436	41.150142134011	0.029677069196
0	4441	41.179819203207	0.033436401315
0	4446	41.213255604522	0.00249908765
0	4448	41.215754692172	0.004243518936
0	4450	41.219998211108	0.015747087073
0	4458	41.235745298181	0.059299977717
0	4466	41.295045275898	0.02748815819
0	4471	41.322533434088	0.038947461092
0	4476	41.36148089518	0.012001032519
0	4481	41.373481927699	0.065634162745
0	4486	41.439116090444	0.010357133584
0	4491	41.449473224028	0.105575433108
0	4497	41.555048657136	0.000500807869
0	4499	41.555549465005	0.038447074047
0	4507	41.593996539052	0.048148405561
0	4513	41.642144944613	0.009159173163
0	4518	41.651304117776	0.017306546221
0	4523	41.668610663997	0.041326079982
0	4529	41.709936743979	0.006892403389
0	4531	41.716829147368	0.046146526259
0	4539	41.762975673627	0.014610198343
0	4544	41.77758587197	0.089441601888
0	4549	41.867027473858	0.044678643239
0	4554	41.911706117097	0.07931260858
0	4560	41.991018725677	0.026128466738
0	4565	42.017147192415	0.017644661103
0	4570	42.034791853518	0.051760320187
0	4576	42.086552173705	0.103345754657
0	4581	42.189897928362	0.001483885483
0	4583	42.191381813845	0.031806464352
0	4591	42.223188278197	0.122421631604
0	4597	42.345609909801	0.061027263765
0	4602	42.406637173566	0.002227809391
0	4604	42.408864982957	0.018759045061
0	4612	42.427624028018	0.146164787926
0	4619	42.573788815944	0.018533148878
0	4624	42.592321964822	0.050510750117
0	4629	42.642832714939	0.005654466361
0	4631	42.6484871813	0.38826684358
0	4643	43.03675402488	0.010825183252
0	4649	43.047579208132	0.039737190821
0	4654	43.087316398953	0.028063344284
0	4659	43.115379743237	0.023328902763
0	4664	43.138708646	0.024853736509
0	4670	43.163562382509	0.026693419378
0	4676	43.190255801887	0.021537575465
0	4681	43.211793377352	0.076014969324
0	4687	43.287808346676	0.001858082184
0	4689	43.28966642886	0.015510187382
0	4697	43.305176616242	0.057162859095
0	4703	43.362339475337	0.08849841047
0	4708	43.450837885807	0.05514279024
0	4714	43.505980676047	0.058530781481
0	4721	43.564511457528	0.034910290628
0	4727	43.599421748156	0.007814821372
0	4732	43.607236569528	0.003517073898
0	4734	43.610753643426	0.07507512823
0	4742	43.685828771656	0.036248202076
0	4749	43.722076973732	0.007186128984
0	4751	43.729263102716	0.010235429071
0	4759	43.739498531787	0.014029303864
0	4764	43.753527835651	0.235918616746
0	4770	43.989446452397	0.000574280695
0	4772	43.990020733092	0.008506838322
0	4777	43.998527571414	0.15979863798
0	4789	44.158326209394	0.000174125531
0	4791	44.158500334925	0.000484733388
0	4793	44.158985068313	0.08953012324
0	4804	44.248515191553	0.076946636361
0	4812	44.325461827914	0.023288346919
0	4817	44.348750174833	0.064338404817
0	4822	44.41308857965	0.046209614408
0	4827	44.459298194058	0.071227233255
0	4834	44.530525427313	0.092183153761
0	4839	44.622708581074	0.004690862589
0	4841	44.627399443663	0.011202504398
0	4849	44.638601948061	0.039494450149
0	4854	44.67809639821	0.016421218629
0	4859	44.694517616839	0.072868692821
0	4864	44.76738630966	0.037651113402
0	4869	44.805037423062	0.032660767842
0	4874	44.837698190904	0.002278637866
0	4876	44.83997682877	0.018796843752
0	4884	44.858773672522	0.051294046749
0	4890	44.910067719271	0.028213337255
0	4895	44.938281056526	0.040111442622
0	4900	44.978392499148	0.036238646295
0	4906	45.014631145443	0.011895396607
0	4911	45.02652654205	0.039403370575
0	4916	45.065929912625	0.107212499553
0	4921	45.173142412178	0.024944412737
0	4926	45.198086824915	0.070911961397
0	4932	45.268998786312	0.011576957124
0	4937	45.280575743436	0.0044687758
0	4939	45.285044519236	0.00208701081
0	4941	45.287131530046	0.004855265486
0	4946	45.291986795532	0.028222125282
0	4957	45.320208920814	0.136672343729
0	4962	45.456881264543	0.136992403639
0	4967	45.593873668182	0.024978489409
0	4972	45.618852157591	0.052955495634
0	4977	45.671807653225	0.063607199616
0	4982	45.735414852841	0.029013771369
0	4987	45.76442862421	0.044503783496
0	4993	45.808932407706	0.166784288575
0	4999	45.975716696281	0.003636508767
0	5001	45.979353205048	0.076683853715
0	5009	46.056037058763	0.05210472016
0	5017	46.108141778923	0.041514495137
0	5022	46.14965627406	0.033056039677
0	5028	46.182712313737	0.030083640659
0	5033	46.212795954396	0.101824887594
0	5038	46.31462084199	0.017826899505
0	5044	46.332447741495	0.066270933568
0	5049	46.398718675063	0.076384240079
0	5056	46.475102915142	0.126194414475
0	5062	46.601297329617	0.085150519025
0	5067	46.686447848642	0.004161231005
0	5069	46.690609079647	0.029725851456
0	5077	46.720334931103	0.100035193805
0	5082	46.820370124908	0.001931382992
0	5084	46.8223015079	0.117488718978
0	5094	46.939790226878	0.061333640765
0	5100	47.001123867643	0.032298099494
0	5105	47.033421967137	0.060092322362
0	5110	47.093514289499	0.160181488676
0	5117	47.253695778175	4.3233858e-05
0	5119	47.253739012033	0.009989517796
0	5124	47.263728529829	0.082095699927
0	5132	47.345824229756	0.042257050916
0	5137	47.388081280672	0.052502751428
0	5142	47.4405840321	0.054326102484
0	5147	47.494910134584	0.227583200079
0	5153	47.722493334663	0.09133604308
0	5160	47.813829377743	0.014508444752
0	5165	47.828337822495	0.045915406281
0	5171	47.874253228776	0.144644818096
0	5178	48.018898046872	0.092625737671
0	5183	48.111523784543	0.054179140197
0	5188	48.16570292474	0.047098578165
0	5193	48.212801502905	0.02052015476
0	5198	48.233321657665	0.002713429102
0	5200	48.236035086767	0.005530145051
0	5206	48.241565231818	0.037854160313
0	5214	48.279419392131	0.038619448939
0	5219	48.31803884107	0.009509278331
0	5224	48.327548119401	0.032869378791
0	5229	48.360417498192	0.056176157684
0	5236	48.416593655876	0.113506633273
0	5241	48.530100289149	0.001568676107
0	5243	48.531668965256	0.070125982123
0	5252	48.601794947379	0.038943306506
0	5257	48.640738253885	0.046324698289
0	5262	48.687062952174	0.021714141369
0	5269	48.708777093543	0.051017576017
0	5276	48.75979466956	0.002744312791
0	5278	48.762538982351	0.04447650821
0	5286	48.807015490561	0.022145138677
0	5291	48.829160629238	0.045949542347
0	5296	48.875110171585	0.04654375482
0	5301	48.921653926405	0.099746358792
0	5308	49.021400285197	0.128214543017
0	5315	49.149614828214	0.000949272339
0	5317	49.150564100553	0.013627019945
0	5322	49.164191120498	0.153940336144
0	5332	49.318131456642	0.018743114371
0	5338	49.336874571013	0.0258052682
0	5343	49.362679839213	0.025755815706
0	5348	49.388435654919	0.053708770174
0	5354	49.442144425093	0.081394518333
0	5360	49.523538943426	0.00805315551
0	5365	49.531592098936	0.098326424564
0	5371	49.6299185235	0.003392786851
0	5373	49.633311310351	0.07027659095
0	5382	49.703587901301	0.040223196021
0	5387	49.743811097322	0.048920269089
0	5392	49.792731366411	0.221414341065
0	5398	50.014145707476	0.002355621992
0	5400	50.016501329468	0.02430633075
0	5408	50.040807660218	0.083039412551
0	5413	50.123847072769	0.051114822657
0	5418	50.174961895426	0.082335142261
0	5423	50.257297037687	0.029976931855
0	5428	50.287273969542	0.052367758956
0	5433	50.339641728498	0.044709741051
0	5438	50.384351469549	0.01780563392
0	5443	50.402157103469	0.081938949666
0	5448	50.484096053135	0.075336660659
0	5453	50.559432713794	0.038223150236
0	5458	50.59765586403	0.052720585696
0	5464	50.650376449726	0.045164999212
0	5469	50.695541448938	0.063139290143
0	5474	50.758680739081	0.020796284381
0	5480	50.779477023462	0.037591816575
0	5486	50.817068840037	0.051153810448
0	5491	50.868222650485	0.021007883593
0	5496	50.889230534078	0.012110627236
0	5501	50.901341161314	0.012915154191
0	5506	50.914256315505	0.024727790669
0	5511	50.938984106174	0.123761589165
0	5516	51.062745695339	0.003276012639
0	5518	51.066021707978	0.021760220576
0	5527	51.087781928554	0.090461159989
0	5532	51.178243088543	0.009840745674
0	5537	51.188083834217	0.062843539622
0	5542	51.250927373839	0.332805537132
0	5554	51.583732910971	0.0005640342
0	5556	51.584296945171	0.087914152376
0	5564	51.672211097547	0.06094963845
0	5569	51.733160735997	0.022269319551
0	5574	51.755430055548	0.020587152598
0	5579	51.776017208146	0.016999209918
0	5584	51.793016418064	0.130706773566
0	5590	51.92372319163	0.066627406614
0	5595	51.990350598244	0.021579890703
0	5600	52.011930488947	0.076545417244
0	5606	52.088475906191	0.052254550656
0	5611	52.140730456847	0.009079037814
0	5616	52.149809494661	0.00240711736
0	5618	52.152216612021	0.094268817796
0	5626	52.246485429817	0.03207078688
0	5631	52.278556216697	0.031755151047
0	5636	52.310311367744	0.075247317755
0	5643	52.385558685499	0.118901714774
0	5649	52.504460400273	0.029542584646
0	5654	52.534002984919	0.034017199834
0	5659	52.568020184753	0.044010333539
0	5665	52.612030518292	0.00875597105
0	5671	52.620786489342	0.157029279825
0	5678	52.777815769167	0.032637088922
0	5683	52.810452858089	0.071101429008
0	5688	52.881554287097	0.008863399215
0	5693	52.890417686312	0.115941580931
0	5699	53.006359267243	0.063093602198
0	5704	53.069452869441	0.117057462457
0	5710	53.186510331898	0.028372852814
0	5715	53.214883184712	0.004666156771
0	5717	53.219549341483	0.052542204313
0	5725	53.272091545796	0.019722852067
0	5731	53.291814397863	0.066647328539
0	5736	53.358461726402	0.072032649859
0	5741	53.430494376261	0.040455767629
0	5747	53.47095014389	0.006866538218
0	5749	53.477816682108	0.041947004177
0	5757	53.519763686285	0.075120530954
0	5763	53.594884217239	0.022893831098
0	5768	53.617778048337	0.04640183325
0	5774	53.664179881587	0.08080309903
0	5779	53.744982980617	0.164851949941
0	5785	53.909834930558	0.008342790162
0	5790	53.91817772072	0.087285144122
0	5796	54.005462864842	0.011090550483
0	5801	54.016553415325	0.026018206386
0	5806	54.042571621711	0.032269708096
0	5811	54.074841329807	0.02898451083
0	5816	54.103825840637	0.007407395228
0	5818	54.111233235865	0.026921294421
0	5826	54.138154530286	0.028288493732
0	5831	54.166443024018	0.034246870894
0	5838	54.200689894912	0.038450899847
0	5843	54.239140794759	0.005255496516
0	5846	54.244396291275	0.01553996287
0	5855	54.259936254145	0.034616764306
0	5861	54.294553018451	0.076639367852
0	5866	54.371192386303	0.06051958677
0	5872	54.431711973073	0.029207431565
0	5877	54.460919404638	0.005149747845
0	5880	54.466069152483	0.005923330438
0	5885	54.471992482921	0.045268352246
0	5894	54.517260835167	0.200740959279
0	5900	54.718001794446	0.003598247146
0	5902	54.721600041592	0.005186922932
0	5907	54.726786964524	0.01012988788
0	5912	54.736916852404	0.001811339417
0	5914	54.738728191821	0.184365338466
0	5927	54.923093530287	0.032432266907
0	5933	54.955525797194	0.02339075191
0	5938	54.978916549104	0.038129256929
0	5943	55.017045806033	0.235847193164
0	5952	55.252892999197	0.010012866845
0	5957	55.262905866042	0.062310604819
0	5965	55.325216470861	0.029710662363
0	5972	55.354927133224	0.015128629701
0	5977	55.370055762925	0.039294676515
0	5982	55.40935043944	0.025615844593
0	5987	55.434966284033	0.058806492092
0	5992	55.493772776125	0.029142687596
0	5997	55.522915463721	0.019814165909
0	6002	55.54272962963	0.00065375551
0	6004	55.54338338514	0.05828852294
0	6013	55.60167190808	0.045717036429
0	6019	55.647388944509	0.010930382139
0	6024	55.658319326648	0.028268435929
0	6029	55.686587762577	0.012538317424
0	6034	55.699126080001	0.007158650115
0	6036	55.706284730116	0.058015054582
0	6044	55.764299784698	0.104951530772
0	6049	55.86925131547	0.004695786202
0	6051	55.873947101672	0.093535062957
0	6059	55.967482164629	0.13462146629
0	6065	56.102103630919	0.009622536119
0	6070	56.111726167038	0.033863158408
0	6075	56.145589325446	0.007859238378
0	6080	56.153448563824	0.024202379111
0	6086	56.177650942935	0.044975806186
0	6091	56.222626749121	0.016565463519
0	6096	56.23919221264	0.038401501721
0	6101	56.277593714361	0.012493023174
0	6106	56.290086737535	0.000930867109
0	6108	56.291017604644	0.030174324328
0	6117	56.321191928972	0.055258986085
0	6123	56.376450915057	0.114177112527
0	6130	56.490628027584	0.014817722539
0	6135	56.505445750123	0.01675164091
0	6140	56.522197391033	0.02762798468
0	6145	56.549825375713	0.011307788874
0	6150	56.561133164587	0.038708652162
0	6155	56.599841816749	0.019680680916
0	6160	56.619522497665	0.137657769
0	6166	56.757180266665	0.110015067061
0	6172	56.867195333726	0.041745369175
0	6177	56.908940702901	0.074940113131
0	6183	56.983880816032	0.066366882497
0	6188	57.050247698529	0.108159805179
0	6194	57.158407503708	0.000684904862
0	6196	57.15909240857	0.001595124037
0	6198	57.160687532607	0.017677484622
0	6206	57.178365017229	0.123396808573
0	6214	57.301761825802	0.023785825947
0	6219	57.325547651749	0.006310281939
0	6221	57.331857933688	0.034277214021
0	6229	57.366135147709	0.084318709524
0	6235	57.450453857233	0.050037572121
0	6240	57.500491429354	0.031182093689
0	6245	57.531673523043	0.017727893065
0	6250	57.549401416108	0.01839132836
0	6255	57.567792744468	0.016022133735
0	6260	57.583814878203	0.0758496054
0	6267	57.659664483603	0.034078412974
0	6272	57.693742896577	0.195608728272
0	6281	57.889351624849	0.088283979591
0	6286	57.97763560444	0.015583546541
0	6291	57.993219150981	0.013465275788
0	6296	58.006684426769	0.077494793219
0	6301	58.084179219988	0.03192317109
0	6306	58.116102391078	0.013295263286
0	6311	58.129397654364	0.000677688094
0	6313	58.130075342458	0.121103104936
0	6323	58.251178447394	0.111253250139
0	6329	58.362431697533	0.021437217782
0	6334	58.383868915315	0.052984449662
0	6339	58.436853364977	0.0011267765
0	6341	58.437980141477	0.009846732982
0	6346	58.447826874459	0.01834870518
0	6354	58.466175579639	0.006740952803
0	6356	58.472916532442	0.003804431156
0	6361	58.476720963598	0.014931042017
0	6370	58.491652005615	0.158049172242
0	6375	58.649701177857	0.087186721307
0	6381	58.736887899164	0.148904723223
0	6386	58.885792622387	0.031954054721
0	6392	58.917746677108	0.007436984597
0	6394	58.925183661705	0.010212892629
0	6402	58.935396554334	0.009616005894
0	6407	58.945012560228	0.080137069288
0	6412	59.025149629516	0.020299193814
0	6417	59.04544882333	0.094426330638
0	6422	59.139875153968	0.061474547559
0	6427	59.201349701527	0.031898127458
0	6432	59.233247828985	0.00155701391
0	6434	59.234804842895	0.018282659056
0	6442	59.253087501951	0.0027562802
0	6444	59.255843782151	0.030376528187
0	6453	59.286220310338	0.094265505438
0	6460	59.380485815776	0.009262882298
0	6465	59.389748698074	0.044043415302
0	6470	59.433792113376	0.070621728751
0	6476	59.504413842127	0.003507751204
0	6478	59.507921593331	0.023157676414
0	6486	59.531079269745	0.066638901404
0	6491	59.597718171149	0.246992673567
0	6500	59.844710844716	0.018484941353
0	6505	59.863195786069	0.004461357624
0	6508	59.867657143693	0.10578262191
0	6518	59.973439765603	0.012235202882
0	6523	59.985674968485	0.004522713441
0	6525	59.990197681926	0.052725229362
0	6533	60.042922911288	0.009104262894
0	6538	60.052027174182	0.020945694972
0	6543	60.072972869154	0.051543749162
0	6548	60.124516618316	0.00722713028
0	6550	60.131743748596	0.01839428218
0	6558	60.150138030776	0.000410581439
0	6560	60.150548612215	0.016904803344
0	6569	60.167453415559	0.044462297033
0	6574	60.211915712592	0.12922295064
0	6579	60.341138663232	0.037720060687
0	6585	60.378858723919	0.069058118476
0	6590	60.447916842395	0.0213904215
0	6595	60.469307263895	0.048511020417
0	6600	60.517818284312	0.009081755927
0	6605	60.526900040239	0.002885186429
0	6607	60.529785226668	0.104495764487
0	6615	60.634280991155	0.0003617056
0	6617	60.634642696755	0.079031175243
0	6626	60.713673871998	0.011700947258
0	6631	60.725374819256	0.042227752247
0	6636	60.767602571503	0.040143392085
0	6641	60.807745963588	0.050308059128
0	6646	60.858054022716	0.059238113645
0	6651	60.917292136361	0.009695445756
0	6656	60.926987582117	0.183141821352
0	6661	61.110129403469	0.069810325089
0	6666	61.179939728558	0.011797121372
0	6671	61.19173684993	0.012984454335
0	6677	61.204721304265	0.01488050652
0	6682	61.219601810785	0.010600030489
0	6687	61.230201841274	0.013394184765
0	6692	61.243596026039	0.049487130687
0	6697	61.293083156726	0.015840048483
0	6702	61.308923205209	0.008065400663
0	6704	61.316988605872	0.112313778968
0	6712	61.42930238484	0.030038933059
0	6717	61.459341317899	0.015092846155
0	6723	61.474434164054	0.086524034285
0	6729	61.560958198339	0.008978112109
0	6734	61.569936310448	0.01372491199
0	6739	61.583661222438	0.062343874907
0	6744	61.646005097345	0.081458947893
0	6750	61.727464045238	0.022857232103
0	6755	61.750321277341	0.137760977322
0	6760	61.888082254663	0.098728433542
0	6767	61.986810688205	0.005339277773
0	6769	61.992149965978	0.122645185937
0	6777	62.114795151915	0.022665044159
0	6782	62.137460196074	0.002010839593
0	6784	62.139471035667	0.021222240039
0	6792	62.160693275706	0.056273004605
0	6797	62.216966280311	0.256843304832
0	6804	62.473809585143	0.022459456097
0	6810	62.49626904124	0.000163398524
0	6812	62.496432439764	0.086105460666
0	6820	62.58253790043	0.044739005495
0	6825	62.627276905925	0.04239025781
0	6830	62.669667163735	0.198954489064
0	6839	62.868621652799	0.090578858177
0	6845	62.959200510976	0.041547622699
0	6850	63.000748133675	0.006378939578
0	6853	63.007127073253	0.086065555832
0	6861	63.093192629085	0.099155418784
0	6866	63.192348047869	0.052909333417
0	6871	63.245257381286	0.044359775452
0	6876	63.289617156738	0.011147978368
0	6881	63.300765135106	0.129775829299
0	6886	63.430540964405	0.003645113508
0	6888	63.434186077913	0.00949677526
0	6893	63.443682853173	0.015000442538
0	6901	63.458683295711	0.039164715375
0	6906	63.497848011086	0.0677438712
0	6912	63.565591882286	0.029462078722
0	6917	63.595053961008	0.03374473583
0	6922	63.628798696838	0.085276734602
0	6927	63.71407543144	0.014979215788
0	6933	63.729054647228	0.060864646987
0	6938	63.789919294215	0.07062111262
0	6945	63.860540406835	0.00897264696
0	6950	63.869513053795	0.044994126434
0	6955	63.914507180229	0.13577352125
0	6962	64.050280701479	0.013482542227
0	6967	64.063763243706	0.242789878497
0	6973	64.306553122203	0.009480966306
0	6978	64.316034088509	0.061550873338
0	6983	64.377584961847	0.064820066345
0	6990	64.442405028192	0.111806915421
0	6995	64.554211943613	0.022112084695
0	7000	64.576324028308	0.049066860741
0	7005	64.625390889049	0.104313015442
0	7011	64.729703904491	0.017809836073
0	7017	64.747513740564	0.088729988424
0	7022	64.836243728988	0.021271785037
0	7027	64.857515514025	0.029322264688
0	7032	64.886837778713	0.139757889709
0	7039	65.026595668422	0.021370971543
0	7044	65.047966639965	0.019691971436
0	7049	65.067658611401	0.034531338015
0	7054	65.102189949416	0.038909371581
0	7060	65.141099320997	0.103472557235
0	7067	65.244571878232	0.055465569046
0	7072	65.300037447278	0.000570768211
0	7074	65.300608215489	0.029698069064
0	7082	65.330306284553	0.019239462716
0	7087	65.349545747269	0.004006382633
0	7090	65.353552129902	0.045074634506
0	7098	65.398626764408	0.072734050868
0	7105	65.471360815276	0.083294099076
0	7112	65.554654914352	0.085750522485
0	7118	65.640405436837	0.206701526688
0	7127	65.847106963525	0.002038134511
0	7129	65.849145098036	0.022881763353
0	7137	65.872026861389	0.047747162152
0	7142	65.919774023541	0.020843220843
0	7147	65.940617244384	0.103258348392
0	7153	66.043875592776	0.044168702422
0	7158	66.088044295198	0.022965701716
0	7164	66.111009996914	0.001221506991
0	7166	66.112231503905	0.015248136851
0	7171	66.127479640756	0.018257996803
0	7179	66.145737637559	0.064057694736
0	7184	66.209795332295	0.023589670476
0	7189	66.233385002771	0.041881188384
0	7194	66.275266191155	0.047155116985
0	7199	66.32242130814	0.175443424098
0	7206	66.497864732238	0.007982803571
0	7208	66.505847535809	0.015451750835
0	7216	66.521299286644	0.039995573876
0	7221	66.56129486052	0.005162421889
0	7223	66.566457282409	0.008484046773
0	7228	66.574941329182	0.028663148797
0	7236	66.603604477979	0.064955317397
0	7241	66.668559795376	0.006741203119
0	7243	66.675300998495	0.037619569693
0	7251	66.712920568188	0.047857210124
0	7256	66.760777778312	0.000564064976
0	7258	66.761341843288	0.000104456524
0	7260	66.761446299812	0.090132715607
0	7272	66.851579015419	0.018723402622
0	7277	66.870302418041	0.007033984125
0	7279	66.877336402166	0.013173410393
0	7287	66.890509812559	0.003100192826
0	7289	66.893610005385	0.009605543176
0	7294	66.903215548561	0.02685095404
0	7302	66.930066502601	0.005277121692
0	7304	66.935343624293	0.014404532584
0	7312	66.949748156877	0.053465459657
0	7317	67.003213616534	0.046349524377
0	7322	67.049563140911	0.042285575706
0	7328	67.091848716617	0.040614190822
0	7334	67.132462907439	0.046784645036
0	7339	67.179247552475	0.070242106566
0	7344	67.249489659041	0.002999097567
0	7346	67.252488756608	0.021413119339
0	7354	67.273901875947	0.090979429325
0	7359	67.364881305272	0.031477226285
0	7364	67.396358531557	0.036570484205
0	7370	67.432929015762	0.113189128621
0	7375	67.546118144383	0.020177210367
0	7380	67.56629535475	0.008012320526
0	7382	67.574307675276	0.010318630553
0	7390	67.584626305829	0.022245481144
0	7395	67.606871786973	0.001910359994
0	7397	67.608782146967	0.048333809944
0	7405	67.657115956911	0.013204614481
0	7411	67.670320571392	0.016834317303
0	7416	67.687154888695	0.126299162204
0	7421	67.813454050899	0.1734893114
0	7427	67.986943362299	0.05732952147
0	7433	68.044272883769	0.281110330564
0	7440	68.325383214333	0.02946353489
0	7446	68.354846749223	0.111074813012
0	7451	68.465921562235	0.118495572908
0	7456	68.584417135143	0.108003810152
0	7462	68.692420945295	0.07135309437
0	7467	68.763774039665	0.105367746082
0	7476	68.869141785747	0.112852793665
0	7481	68.981994579412	0.041153968439
0	7486	69.023148547851	0.012018329042
0	7491	69.035166876893	0.071096828331
0	7496	69.106263705224	0.046591065918
0	7501	69.152854771142	0.038202624837
0	7506	69.191057395979	0.085996156812
0	7512	69.277053552791	0.10232631046
0	7517	69.379379863251	0.000800308104
0	7519	69.380180171355	0.04022804951
0	7529	69.420408220865	0.19540920161
0	7535	69.615817422475	0.080588593309
0	7540	69.696406015784	0.0018653937
0	7542	69.698271409484	0.01948065476
0	7550	69.717752064244	0.058051356706
0	7557	69.77580342095	0.047549288774
0	7562	69.823352709724	0.001598236095
0	7564	69.824950945819	0.063077871283
0	7573	69.888028817102	0.139642181507
0	7578	70.027670998609	0.075132133252
0	7583	70.102803131861	0.006458694868
0	7585	70.109261826729	0.060955611082
0	7594	70.170217437811	0.070743477164
0	7599	70.240960914975	0.037129461303
0	7605	70.278090376278	0.002041632331
0	7607	70.280132008609	0.024565294805
0	7615	70.304697303414	0.041195996419
0	7621	70.345893299833	0.112746720182
0	7626	70.458640020015	0.06582739071
0	7633	70.524467410725	0.015567115168
0	7638	70.540034525893	0.074177025015
0	7644	70.614211550908	0.064707412596
0	7651	70.678918963504	0.025694863403
0	7656	70.704613826907	0.001927518711
0	7658	70.706541345618	0.018048360048
0	7666	70.724589705666	0.058601287421
0	7671	70.783190993087	0.202130467129
0	7678	70.985321460216	0.020934938221
0	7683	71.006256398437	0.111718235799
0	7688	71.117974634236	0.061437931799
0	7693	71.179412566035	0.004380499393
0	7695	71.183793065428	0.067383960083
0	7703	71.251177025511	0.015947763893
0	7708	71.267124789404	0.008071989618
0	7713	71.275196779022	0.004291555666
0	7715	71.279488334688	0.043494932677
0	7724	71.322983267365	0.183376583047
0	7731	71.506359850412	0.002662762924
0	7733	71.509022613336	0.004641475787
0	7735	71.513664089123	0.026313639329
0	7746	71.539977728452	0.002687554767
0	7748	71.542665283219	0.007890769078
0	7753	71.550556052297	0.144654896729
0	7761	71.695210949026	0.012633635219
0	7766	71.707844584245	0.224842375723
0	7771	71.932686959968	0.062637863784
0	7776	71.995324823752	0.010280261674
0	7781	72.005605085426	0.039549798592
0	7787	72.045154884018	0.034712486264
0	7792	72.079867370282	0.017752087619
0	7797	72.097619457901	0.005457920138
0	7799	72.103077378039	0.088676537224
0	7807	72.191753915263	0.189420350847
0	7813	72.38117426611	0.169717332405
0	7820	72.550891598515	0.044289982125
0	7825	72.59518158064	0.055761246828
0	7830	72.650942827468	0.124556466712
0	7835	72.77549929418	0.0113634597
0	7840	72.78686275388	0.066608031541
0	7846	72.853470785421	0.016289285566
0	7851	72.869760070987	0.024441898333
0	7857	72.89420196932	0.045797345484
0	7863	72.939999314804	0.076449696884
0	7868	73.016449011688	0.106513938365
0	7874	73.122962950053	0.003163201522
0	7876	73.126126151575	0.02441059198
0	7884	73.150536743555	0.04962424107
0	7889	73.200160984625	0.034625855979
0	7894	73.234786840604	0.016710824314
0	7899	73.251497664918	0.024075727372
0	7905	73.27557339229	0.004845860898
0	7907	73.280419253188	0.056539646396
0	7916	73.336958899584	0.046166256832
0	7921	73.383125156416	0.002690566464
0	7923	73.38581572288	0.090254022389
0	7932	73.476069745269	0.035201377146
0	7938	73.511271122415	0.075478008483
0	7945	73.586749130898	0.002199924675
0	7947	73.588949055573	0.062551367627
0	7955	73.6515004232	0.048598803961
0	7961	73.700099227161	0.009569442445
0	7966	73.709668669606	0.074365352081
0	7973	73.784034021687	0.038492585757
0	7978	73.822526607444	0.011435038188
0	7983	73.833961645632	0.149987912729
0	7989	73.983949558361	0.014245963731
0	7994	73.998195522092	0.003348961431
0	7996	74.001544483523	0.000420778888
0	7998	74.001965262411	0.106521546634
0	8010	74.108486809045	0.008027705066
0	8015	74.116514514111	0.069482217925
0	8020	74.185996732036	0.01602222745
0	8025	74.202018959486	0.061578149428
0	8030	74.263597108914	0.020895378009
0	8035	74.284492486923	0.047623660887
0	8040	74.33211614781	0.01370493496
0	8045	74.34582108277	0.027849438255
0	8050	74.373670521025	0.028074365803
0	8056	74.401744886828	0.010768820854
0	8061	74.412513707682	0.014082287424
0	8066	74.426595995106	0.003144708696
0	8068	74.429740703802	0.009820246947
0	8073	74.439560950749	0.03491224162
0	8082	74.474473192369	0.039328357568
0	8087	74.513801549937	0.079200896088
0	8092	74.593002446025	0.163891587521
0	8098	74.756894033546	0.027893132006
0	8104	74.784787165552	0.002320060319
0	8106	74.787107225871	0.055458879776
0	8114	74.842566105647	0.132026346571
0	8120	74.974592452218	0.016943202176
0	8125	74.991535654394	0.001668357322
0	8127	74.993204011716	0.045157439729
0	8136	75.038361451445	0.140375068337
0	8142	75.178736519782	0.079230272082
0	8148	75.257966791864	0.029794696964
0	8153	75.287761488828	0.049674075277
0	8158	75.337435564105	0.021412627948
0	8163	75.358848192053	0.0564547896
0	8171	75.415302981653	0.154713882484
0	8179	75.570016864137	0.004752639187
0	8181	75.574769503324	0.01957476363
0	8189	75.594344266954	0.174915777522
0	8195	75.769260044476	0.022307944122
0	8201	75.791567988598	0.047692266725
0	8206	75.839260255323	0.059760630805
0	8211	75.899020886128	0.056392384564
0	8217	75.955413270692	0.003776968118
0	8219	75.95919023881	0.029770242132
0	8227	75.988960480942	0.004375841234
0	8229	75.993336322176	0.125775541877
0	8239	76.119111864053	0.01655529918
0	8245	76.135667163233	0.063878547473
0	8251	76.199545710706	0.029528291758
0	8256	76.229074002464	0.068186470814
0	8261	76.297260473278	0.002675890456
0	8263	76.299936363734	0.013160105251
0	8271	76.313096468985	0.00173066847
0	8273	76.314827137455	0.03117556497
0	8282	76.346002702425	0.05877741531
0	8289	76.404780117735	0.005590601985
0	8291	76.41037071972	0.0111474121
0	8299	76.42151813182	0.03025485918
0	8304	76.451772991	0.054208896692
0	8309	76.505981887692	0.015557515943
0	8314	76.521539403635	0.125483557626
0	8322	76.647022961261	0.060044463284
0	8327	76.707067424545	0.091071659251
0	8332	76.798139083796	0.298445188582
0	8339	77.096584272378	0.03641736561
0	8344	77.133001637988	0.032870361922
0	8349	77.16587199991	0.021150789537
0	8354	77.187022789447	0.034657025942
0	8359	77.221679815389	0.030879138934
0	8364	77.252558954323	0.070087261413
0	8369	77.322646215736	0.004055024126
0	8371	77.326701239862	0.025192007025
0	8380	77.351893246887	0.028105540247
0	8385	77.379998787134	0.04315876517
0	8390	77.423157552304	0.019608032086
0	8395	77.44276558439	0.045626860626
0	8400	77.488392445016	0.205919117851
0	8407	77.694311562867	0.063859422142
0	8412	77.758170985009	0.106579149802
0	8417	77.864750134811	0.056675120805
0	8422	77.921425255616	0.021680643665
0	8427	77.943105899281	0.135554320205
0	8434	78.078660219486	0.024371044789
0	8439	78.103031264275	0.111628574655
0	8444	78.21465983893	0.088760075105
0	8449	78.303419914035	0.003407192941
0	8451	78.306827106976	0.080090722919
0	8459	78.386917829895	0.021241987045
0	8465	78.40815981694	0.16460668096
0	8471	78.5727664979	0.057382459763
0	8476	78.630148957663	0.006453854683
0	8479	78.636602812346	0.021902947762
0	8487	78.658505760108	0.073219922027
0	8493	78.731725682135	0.12106760172
0	8498	78.852793283855	0.141671055392
0	8503	78.994464339247	0.043550511907
0	8508	79.038014851154	0.057885305529
0	8513	79.095900156683	0.081638620287
0	8518	79.17753877697	0.064205240238
0	8523	79.241744017208	0.076506469977
0	8529	79.318250487185	0.120686004906
0	8535	79.438936492091	0.120181407561
0	8540	79.559117899652	0.046284076548
0	8546	79.6054019762	0.027764529672
0	8551	79.633166505872	0.13002627305
0	8558	79.763192778922	0.098797681333
0	8563	79.861990460255	0.020554733924
0	8568	79.882545194179	0.043951340923
0	8575	79.926496535102	0.073928794505
0	8582	80.000425329607	0.013049421925
0	8588	80.013474751532	0.093753938963
0	8594	80.107228690495	0.044890282807
0	8599	80.152118973302	0.139032661272
0	8605	80.291151634574	0.02472961569
0	8610	80.315881250264	0.042495441363
0	8615	80.358376691627	0.023166131251
0	8620	80.381542822878	0.022854467749
0	8625	80.404397290627	0.037566078103
0	8630	80.44196336873	0.01920664309
0	8635	80.46117001182	0.08752923029
0	8641	80.54869924211	0.003513626604
0	8643	80.552212868714	0.125350230126
0	8652	80.67756309884	0.004774487307
0	8654	80.682337586147	0.110912943961
0	8663	80.793250530108	0.0286842081
0	8668	80.821934738208	0.023484521379
0	8673	80.845419259587	0.063520220152
0	8678	80.908939479739	0.000600626266
0	8680	80.909540106005	0.095244974893
0	8689	81.004785080898	0.002989935891
0	8691	81.007775016789	0.063910401745
0	8700	81.071685418534	0.156169640227
0	8705	81.227855058761	0.027060969724
0	8710	81.254916028485	0.21969104578
0	8716	81.474607074265	0.002439124887
0	8718	81.477046199152	0.024803990148
0	8726	81.5018501893	0.03022529528
0	8731	81.53207548458	0.027592118195
0	8736	81.559667602775	0.026247347658
0	8741	81.585914950433	0.003841930789
0	8743	81.589756881222	0.015337683645
0	8751	81.605094564867	0.031067833403
0	8756	81.63616239827	0.037778098228
0	8762	81.673940496498	0.135745754504
0	8771	81.809686251002	0.075820546465
0	8776	81.885506797467	0.056315562038
0	8781	81.941822359505	0.022328470561
0	8786	81.964150830066	0.073954163425
0	8791	82.038104993491	0.191808885038
0	8799	82.229913878529	0.075143280724
0	8804	82.305057159253	0.049712432988
0	8809	82.354769592241	0.299785839813
0	8819	82.654555432054	0.097207936962
0	8824	82.751763369016	0.047656572273
0	8830	82.799419941289	0.065653520071
0	8835	82.86507346136	0.041505599289
0	8840	82.906579060649	0.042963806687
0	8846	82.949542867336	0.011065942462
0	8851	82.960608809798	0.01622540412
0	8856	82.976834213918	0.090970277666
0	8863	83.067804491584	0.016636667359
0	8868	83.084441158943	0.015776953163
0	8873	83.100218112106	0.204856844127
0	8880	83.305074956233	0.057188672475
0	8885	83.362263628708	0.010443788245
0	8890	83.372707416953	0.09963029751
0	8896	83.472337714463	0.003484320927
0	8898	83.47582203539	0.063406721594
0	8906	83.539228756984	0.075575981025
0	8911	83.614804738009	0.164630808831
0	8917	83.77943554684	0.023677656939
0	8922	83.803113203779	0.052763731937
0	8928	83.855876935716	0.022018555706
0	8933	83.877895491422	0.184527518025
0	8939	84.062423009447	0.031891591463
0	8944	84.09431460091	0.04826532622
0	8950	84.14257992713	0.381326264481
0	8959	84.523906191611	0.055667172254
0	8964	84.579573363865	0.017295096546
0	8969	84.596868460411	0.054523177734
0	8976	84.651391638145	0.118510706861
0	8982	84.769902345006	0.104057281185
0	8988	84.873959626191	0.082912069212
0	8993	84.956871695403	0.032713926852
0	8998	84.989585622255	0.011882149844
0	9003	85.001467772099	0.001711752348
0	9005	85.003179524447	0.026097261046
0	9013	85.029276785493	0.005729460912
0	9015	85.035006246405	0.07310631365
0	9023	85.108112560055	0.032391743521
0	9028	85.140504303576	0.025078125393
0	9034	85.165582428969	0.048408630252
0	9040	85.213991059221	0.022284456893
0	9045	85.236275516114	0.109288556746
0	9050	85.34556407286	0.039328396296
0	9055	85.384892469156	0.016372655808
0	9060	85.401265124964	0.058155753687
0	9065	85.459420878651	0.095469809263
0	9070	85.554890687914	0.182516786271
0	9077	85.737407474185	0.025151228833
0	9083	85.762558703018	0.010894443428
0	9089	85.773453146446	0.099495300768
0	9095	85.872948447214	0.069983633776
0	9100	85.94293208099	0.017856407771
0	9105	85.960788488761	0.217381451515
0	9111	86.178169940276	0.065589297248
0	9117	86.243759237524	0.03741443204
0	9122	86.281173669564	0.049620996473
0	9128	86.330794666037	0.043340000486
0	9133	86.374134666523	0.120554224052
0	9141	86.494688890575	0.049121666785
0	9146	86.54381055736	0.003370159006
0	9148	86.547180716366	0.01482195343
0	9156	86.562002669796	0.048046475944
0	9161	86.61004914574	0.108539104507
0	9168	86.718588250247	0.022146381288
0	9173	86.740734631535	0.005568026375
0	9175	86.74630265791	0.007687141761
0	9180	86.753989799671	0.022412628914
0	9188	86.776402428585	0.03693028615
0	9193	86.813332714735	0.001911539033
0	9195	86.815244253768	0.000160306144
0	9197	86.815404559912	0.000359717322
0	9199	86.815764277234	0.013560207487
0	9204	86.829324484721	0.022249944884
0	9216	86.851574429605	0.016819309727
0	9224	86.868393739332	0.012215285717
0	9229	86.880609025049	0.102999897101
0	9234	86.98360892215	0.062563681499
0	9240	87.046172603649	0.273709866365
0	9251	87.319882470014	0.052169637516
0	9256	87.37205210753	0.044902042611
0	9261	87.416954150141	0.041997588766
0	9267	87.458951738907	0.109991355523
0	9274	87.56894309443	0.153775136833
0	9282	87.722718231263	0.102878394649
0	9289	87.825596625912	0.09571093747
0	9297	87.921307563382	0.005799641385
0	9299	87.927107204767	0.000274611773
0	9301	87.92738181654	0.075490793265
0	9314	88.002872609805	0.243487474526
0	9319	88.246360084331	0.180623961748
0	9324	88.426984046079	0.024435421587
0	9329	88.451419467666	0.025527997667
0	9335	88.476947465333	0.007137276454
0	9337	88.484084741787	0.017181717115
0	9346	88.501266458902	0.074729438924
0	9351	88.575995897826	0.002104080764
0	9353	88.57809997859	0.002610102569
0	9355	88.580710081159	0.028841122407
0	9366	88.609551203566	0.029784848564
0	9371	88.63933605213	0.073190672917
0	9378	88.712526725047	0.210960946349
0	9386	88.923487671396	0.009823395467
0	9391	88.933311066863	0.04940254553
0	9397	88.982713612393	0.023192763495
0	9402	89.005906375888	0.021820098525
0	9407	89.027726474413	0.028996071391
0	9412	89.056722545804	0.049388587582
0	9418	89.106111133386	0.000214101697
0	9420	89.106325235083	0.007493544899
0	9422	89.113818779982	0.05101789878
0	9434	89.164836678762	0.035164451306
0	9439	89.200001130068	0.036878011682
0	9444	89.23687914175	0.069452954261
0	9450	89.306332096011	0.204818935705
0	9458	89.511151031716	0.005502464997
0	9460	89.516653496713	0.075503391906
0	9468	89.592156888619	0.039413983885
0	9473	89.631570872504	0.032398843576
0	9478	89.66396971608	0.124964028869
0	9483	89.788933744949	0.007021273793
0	9485	89.795955018742	0.11179437911
0	9493	89.907749397852	0.028994117986
0	9498	89.936743515838	0.017488824829
0	9503	89.954232340667	0.032644582986
0	9508	89.986876923653	0.044577882689
0	9513	90.031454806342	0.033647701915
0	9518	90.065102508257	0.001650687677
0	9520	90.066753195934	0.021098662546
0	9528	90.08785185848	0.012746993921
0	9533	90.100598852401	0.024335261648
0	9538	90.124934114049	0.098214141284
0	9543	90.223148255333	0.101258434316
0	9548	90.324406689649	0.105326900547
0	9553	90.429733590196	0.024799673156
0	9558	90.454533263352	0.181959689053
0	9564	90.636492952405	0.035864657082
0	9569	90.672357609487	0.023561308302
0	9574	90.695918917789	0.015809033306
0	9580	90.711727951095	0.011031266442
0	9585	90.722759217537	0.196338337207
0	9591	90.919097554744	0.017811730843
0	9597	90.936909285587	0.018277975114
0	9603	90.955187260701	0.020258777444
0	9608	90.975446038145	0.016892587955
0	9613	90.9923386261	0.118121818363
0	9618	91.110460444463	0.05783684824
0	9624	91.168297292703	0.013664094616
0	9629	91.181961387319	0.056371232135
0	9635	91.238332619454	0.17669631088
0	9642	91.415028930334	0.115421103312
0	9649	91.530450033646	0.012866910628
0	9654	91.543316944274	0.022184906943
0	9659	91.565501851217	0.032889156712
0	9664	91.598391007929	0.066294020128
0	9670	91.664685028057	0.128059380836
0	9675	91.792744408893	0.007038137175
0	9677	91.799782546068	0.007829519982
0	9685	91.80761206605	0.010191024183
0	9690	91.817803090233	0.011439947028
0	9695	91.829243037261	0.000746972438
0	9697	91.829990009699	0.092352746374
0	9705	91.922342756073	0.049972654226
0	9710	91.972315410299	0.021681924107
0	9715	91.993997334406	0.068192036633
0	9721	92.062189371039	0.080529730149
0	9726	92.142719101188	0.161096142097
0	9731	92.303815243285	0.00644331744
0	9734	92.310258560725	0.011389196741
0	9742	92.321647757466	0.009461490149
0	9747	92.331109247615	0.048351423588
0	9753	92.379460671203	0.048605352928
0	9759	92.428066024131	0.021560563044
0	9764	92.449626587175	0.004780487926
0	9766	92.454407075101	0.052334050723
0	9774	92.506741125824	0.008264297105
0	9779	92.515005422929	0.260605750518
0	9786	92.775611173447	0.018309610913
0	9791	92.79392078436	0.016301399156
0	9796	92.810222183516	0.048834190729
0	9803	92.859056374245	0.039778001203
0	9808	92.898834375448	0.001782876884
0	9810	92.900617252332	0.000980940728
0	9812	92.90159819306	0.048981083698
0	9825	92.950579276758	0.086635272713
0	9830	93.037214549471	0.047265262243
0	9835	93.084479811714	0.105178435183
0	9842	93.189658246897	0.030707994622
0	9847	93.220366241519	0.034148967814
0	9852	93.254515209333	0.009510492771
0	9857	93.264025702104	0.00971562525
0	9862	93.273741327354	0.001439166028
0	9864	93.275180493382	0.004303542481
0	9866	93.279484035863	0.049069313629
0	9877	93.328553349492	0.003248537485
0	9879	93.331801886977	0.057225657188
0	9887	93.389027544165	0.066387105438
0	9892	93.455414649603	0.008365711357
0	9897	93.46378036096	0.088257037261
0	9905	93.552037398221	0.043555944018
0	9912	93.595593342239	0.11803024879
0	9919	93.713623591029	0.099289660459
0	9927	93.812913251488	0.108570368096
0	9932	93.921483619584	0.064325361523
0	9938	93.985808981107	0.186952486334
0	9944	94.172761467441	0.057687587103
0	9949	94.230449054544	0.143272526796
0	9956	94.37372158134	0.029722976603
0	9961	94.403444557943	0.067744480629
0	9966	94.471189038572	0.00312557832
0	9968	94.474314616892	0.030435404014
0	9976	94.504750020906	0.017332193631
0	9981	94.522082214537	0.109619889826
0	9987	94.631702104363	0.024693922715
0	9992	94.656396027078	0.088484460899
0	9997	94.744880487977	0.034839784162
0	10002	94.779720272139	0.152224718193
0	10008	94.931944990332	1.5169098e-05
0	10010	94.93196015943	0.001039353647
0	10012	94.932999513077	0.170023017846
0	10023	95.103022530923	0.025954484585
0	10029	95.128977015508	0.068037050348
0	10034	95.197014065856	0.087296944853
0	10041	95.284311010709	0.007333038807
0	10043	95.291644049516	0.015564446357
0	10051	95.307208495873	0.048842907046
0	10056	95.356051402919	0.019561466131
0	10061	95.37561286905	0.031631371251
0	10066	95.407244240301	0.009322736059
0	10071	95.41656697636	0.005065550373
0	10073	95.421632526733	0.007703304196
0	10078	95.429335830929	0.086892717541
0	10086	95.51622854847	0.014091266952
0	10091	95.530319815422	0.028566497443
0	10097	95.558886312865	0.031450559909
0	10102	95.590336872774	0.068834114159
0	10107	95.659170986933	0.001538471427
0	10109	95.66070945836	0.029446307634
0	10117	95.690155765994	0.00582534917
0	10119	95.695981115164	0.057176333731
0	10128	95.753157448895	0.029722177381
0	10133	95.782879626276	0.00658093565
0	10135	95.789460561926	0.022355204004
0	10143	95.81181576593	0.04989762998
0	10148	95.86171339591	0.060688484472
0	10153	95.922401880382	0.011935495027
0	10159	95.934337375409	0.06757640741
0	10165	96.001913782819	0.002945382956
0	10167	96.004859165775	0.081757124537
0	10175	96.086616290312	0.036941479101
0	10180	96.123557769413	0.008591339052
0	10185	96.132149108465	0.000324229929
0	10187	96.132473338394	0.011581920922
0	10192	96.144055259316	0.06428755699
0	10202	96.208342816306	0.01177729684
0	10207	96.220120113146	0.048377518419
0	10212	96.268497631565	0.012025294805
0	10217	96.28052292637	0.046780438712
0	10222	96.327303365082	0.032626542459
0	10227	96.359929907541	0.007382530096
0	10229	96.367312437637	0.023064717387
0	10237	96.390377155024	0.105384143861
0	10242	96.495761298885	0.013315263198
0	10247	96.509076562083	0.037678496679
0	10253	96.546755058762	0.038668922646
0	10258	96.585423981408	0.010004311212
0	10263	96.59542829262	0.054865367423
0	10268	96.650293660043	0.018568386396
0	10274	96.668862046439	0.037355767761
0	10279	96.7062178142	0.014184343735
0	10284	96.720402157935	0.082937172321
0	10289	96.803339330256	0.018582330479
0	10294	96.821921660735	0.064740240892
0	10299	96.886661901627	0.010008819852
0	10304	96.896670721479	0.107781499265
0	10309	97.004452220744	0.007527765507
0	10311	97.011979986251	0.079688045457
0	10319	97.091668031708	0.021902677637
0	10324	97.113570709345	0.012899145119
0	10329	97.126469854464	0.000107964518
0	10331	97.126577818982	0.033771015843
0	10339	97.160348834825	0.034766162879
0	10344	97.195114997704	0.042235977386
0	10350	97.23735097509	0.116680438067
0	10355	97.354031413157	0.096472709106
0	10361	97.450504122263	0.027788992012
0	10366	97.478293114275	0.006042721193
0	10368	97.484335835468	0.074168041547
0	10377	97.558503877015	0.0921220357
0	10384	97.650625912715	0.014779982668
0	10389	97.665405895383	0.068918240146
0	10394	97.734324135529	0.009061987762
0	10399	97.743386123291	0.093102239533
0	10406	97.836488362824	0.045367861945
0	10411	97.881856224769	0.020273009636
0	10416	97.902129234405	0.061628986223
0	10421	97.963758220628	0.02527717954
0	10426	97.989035400168	0.149667798246
0	10431	98.138703198414	0.269652605122
0	10439	98.408355803536	0.068916347159
0	10444	98.477272150695	0.034995521863
0	10449	98.512267672558	0.009690459481
0	10454	98.521958132039	0.015655107184
0	10459	98.537613239223	0.078560353776
0	10465	98.616173592999	0.004493499775
0	10467	98.620667092774	0.084996257265
0	10476	98.705663350039	0.027044106012
0	10482	98.732707456051	0.166350694857
0	10488	98.899058150908	0.066980827182
0	10494	98.96603897809	0.16118778877
0	10502	99.12722676686	0.004266180081
0	10504	99.131492946941	0.009270824133
0	10509	99.140763771074	0.02854214166
0	10517	99.169305912734	0.194432694454
0	10523	99.363738607188	0.141859610926
0	10529	99.505598218114	0.188388361839
0	10536	99.693986579953	0.019188641621
0	10541	99.713175221574	0.02473481363
0	10546	99.737910035204	0.026314582282
0	10551	99.764224617486	0.127615410712
0	10557	99.891840028198	0.026321301378
0	10562	99.918161329576	0.033714259241
0	10567	99.951875588817	0.022084734931
0	10572	99.973960323748	0.016041534602
0	10577	99.99000185835	0.004345675945
0	10579	99.994347534295	0.04423105215
0	10588	100.038578586445	0.025907944621
0	10593	100.064486531066	0.007222913389
0	10595	100.071709444455	0.072675380824
0	10603	100.144384825279	0.102034896718
0	10608	100.246419721997	0.077692227999
0	10613	100.324111949996	0.145179866153
0	10619	100.469291816149	0.003432832514
0	10621	100.472724648663	0.018045187481
0	10629	100.490769836144	0.017008824514
0	10634	100.507778660658	0.029680534033
0	10639	100.537459194691	0.039654595701
0	10645	100.577113790392	0.026403140671
0	10650	100.603516931063	0.129688592852
0	10656	100.733205523915	0.021846317195
0	10661	100.75505184111	0.105430366939
0	10667	100.860482208049	0.017650672065
0	10673	100.878132880114	0.005090712871
0	10675	100.883223592985	0.044323724242
0	10683	100.927547317227	0.066092738801
0	10688	100.993640056028	0.009396182288
0	10693	101.003036238316	0.081656103176
0	10699	101.084692341492	0.005263411621
0	10701	101.089955753113	0.037720798629
0	10710	101.127676551742	0.017048881344
0	10715	101.144725433086	0.059704346357
0	10722	101.204429779443	0.001348306934
0	10724	101.205778086377	0.029905730889
0	10732	101.235683817266	0.015006345606
0	10737	101.250690162872	0.056355319764
0	10744	101.307045482636	0.03335265666
0	10750	101.340398139296	0.036791432298
0	10757	101.377189571594	0.021978454294
0	10762	101.399168025888	0.06661953988
0	10768	101.465787565768	0.017128806359
0	10773	101.482916372127	0.066054523259
0	10778	101.548970895386	0.048195127432
0	10783	101.597166022818	0.01793402632
0	10788	101.615100049138	0.003464700187
0	10790	101.618564749325	0.019531346841
0	10799	101.638096096166	0.075820728488
0	10806	101.713916824654	0.004971677679
0	10808	101.718888502333	0.041146688833
0	10816	101.760035191166	0.030981455666
0	10821	101.791016646832	0.070517929602
0	10826	101.861534576434	0.026965217085
0	10831	101.888499793519	0.025338643777
0	10837	101.913838437296	0.010188594619
0	10842	101.924027031915	0.018193296016
0	10848	101.942220327931	0.087949526222
0	10853	102.030169854153	0.06306522709
0	10858	102.093235081243	0.040611214294
0	10863	102.133846295537	0.008405351105
0	10868	102.142251646642	0.080190200776
0	10873	102.222441847418	0.10874592178
0	10881	102.331187769198	0.024572084713
0	10887	102.355759853911	0.027941336691
0	10892	102.383701190602	0.016228365662
0	10897	102.399929556264	0.016769060349
0	10902	102.416698616613	0.089005107734
0	10907	102.505703724347	0.047439403842
0	10912	102.553143128189	0.049657058005
0	10917	102.602800186194	0.045313329147
0	10922	102.648113515341	0.066508908754
0	10928	102.714622424095	0.115406562586
0	10933	102.830028986681	0.040583594201
0	10938	102.870612580882	0.018943826937
0	10943	102.889556407819	0.010434504585
0	10948	102.899990912404	0.08838632769
0	10953	102.988377240094	0.006172903442
0	10955	102.994550143536	0.000796984387
0	10957	102.995347127923	0.021314719645
0	10968	103.016661847568	0.056557255708
0	10973	103.073219103276	0.016566604461
0	10978	103.089785707737	0.002097917683
0	10980	103.09188362542	0.007555346663
0	10985	103.099438972083	0.039783304973
0	10994	103.139222277056	0.063301516704
0	10999	103.20252379376	0.05779153639
0	11004	103.26031533015	0.028002005552
0	11010	103.288317335702	0.027077208256
0	11015	103.315394543958	0.023965928082
0	11020	103.33936047204	0.089826694561
0	11026	103.429187166601	0.00423207327
0	11028	103.433419239871	0.057138412958
0	11036	103.490557652829	0.001178397533
0	11038	103.491736050362	0.103489650347
0	11048	103.595225700709	0.023564766904
0	11054	103.618790467613	0.097235958911
0	11059	103.716026426524	0.027212864088
0	11064	103.743239290612	0.001996168886
0	11066	103.745235459498	0.171149973348
0	11075	103.916385432846	0.047359636648
0	11080	103.963745069494	0.008351628584
0	11085	103.972096698078	0.169389423614
0	11090	104.141486121692	0.010409333341
0	11095	104.151895455033	0.077150614835
0	11101	104.229046069868	3.0204299e-05
0	11103	104.229076274167	0.030641154443
0	11111	104.25971742861	0.049466710889
0	11116	104.309184139499	0.020297466293
0	11121	104.329481605792	0.063660641843
0	11127	104.393142247635	0.028033928824
0	11132	104.421176176459	0.016015360918
0	11137	104.437191537377	0.142870795174
0	11144	104.580062332551	0.003739994381
0	11146	104.583802326932	0.014085699983
0	11154	104.597888026915	0.000519466738
0	11156	104.598407493653	0.009034964815
0	11161	104.607442458468	0.023064128414
0	11169	104.630506586882	0.033640800335
0	11175	104.664147387217	0.065058389849
0	11181	104.729205777066	0.027195185814
0	11186	104.75640096288	0.001339334928
0	11188	104.757740297808	0.099842542467
0	11197	104.857582840275	0.016317593651
0	11202	104.873900433926	0.056268656572
0	11208	104.930169090498	0.032057341417
0	11214	104.962226431915	0.074530323669
0	11219	105.036756755584	0.019945241536
0	11224	105.05670199712	0.20145260108
0	11231	105.2581545982	0.036109559086
0	11236	105.294264157286	0.023082301514
0	11241	105.3173464588	0.15030515982
0	11247	105.46765161862	0.05120105957
0	11252	105.51885267819	0.157491511506
0	11259	105.676344189696	0.019000040899
0	11264	105.695344230595	0.031558785611
0	11269	105.726903016206	0.016567960295
0	11275	105.743470976501	0.045073152994
0	11280	105.788544129495	0.011955818469
0	11285	105.800499947964	0.018037092362
0	11291	105.818537040326	0.015495253824
0	11296	105.83403229415	0.078263237812
0	11301	105.912295531962	0.08318292173
0	11306	105.995478453692	0.039335008278
0	11311	106.03481346197	0.157579597655
0	11319	106.192393059625	0.104682325249
0	11325	106.297075384874	0.022802024336
0	11330	106.31987740921	0.023134266524
0	11335	106.343011675734	0.013757806994
0	11340	106.356769482728	0.049461435341
0	11345	106.406230918069	0.146069221909
0	11351	106.552300139978	0.01765486133
0	11357	106.569955001308	0.05589713386
0	11363	106.625852135168	0.070366938947
0	11370	106.696219074115	0.003351030203
0	11372	106.699570104318	0.034521892197
0	11380	106.734091996515	0.008152175296
0	11385	106.742244171811	0.095668443098
0	11391	106.837912614909	0.028795170694
0	11396	106.866707785603	0.007290321554
0	11398	106.873998107157	0.233624484249
0	11408	107.107622591406	0.002872760228
0	11410	107.110495351634	0.168718966702
0	11422	107.279214318336	0.082393191365
0	11427	107.361607509701	0.009444223327
0	11432	107.371051733028	0.021543861034
0	11437	107.392595594062	0.039732177731
0	11442	107.432327771793	0.083841590996
0	11449	107.516169362789	0.00559093265
0	11452	107.521760295439	0.063839536254
0	11462	107.585599831693	0.092222236287
0	11469	107.67782206798	0.12052259385
0	11475	107.79834466183	0.024364802337
0	11480	107.822709464167	0.018158897004
0	11485	107.840868361171	0.001053295084
0	11487	107.841921656255	0.037283330446
0	11496	107.879204986701	0.072945762341
0	11501	107.952150749042	0.080338846012
0	11507	108.032489595054	0.081471069312
0	11512	108.113960664366	0.149044436921
0	11517	108.263005101287	0.022724372425
0	11522	108.285729473712	0.030781064375
0	11528	108.316510538087	0.032628019698
0	11533	108.349138557785	0.075323728593
0	11538	108.424462286378	0.028523521363
0	11545	108.452985807741	0.005247468288
0	11547	108.458233276029	0.063056961825
0	11555	108.521290237854	0.048921701577
0	11561	108.570211939431	0.09829718475
0	11568	108.668509124181	0.073689041866
0	11574	108.742198166047	0.017892907133
0	11579	108.76009107318	0.033792665957
0	11584	108.793883739137	0.065476504446
0	11589	108.859360243583	0.011344452449
0	11594	108.870704696032	0.005451864363
0	11596	108.876156560395	0.102528697035
0	11604	108.97868525743	0.004371053497
0	11606	108.983056310927	0.136590062626
0	11616	109.119646373553	0.054220463909
0	11622	109.173866837462	0.041399825218
0	11627	109.21526666268	0.028728777415
0	11633	109.243995440095	0.040862350155
0	11638	109.28485779025	0.011303892031
0	11643	109.296161682281	0.177256857712
0	11649	109.473418539993	0.078535011093
0	11654	109.551953551086	0.13501210651
0	11660	109.686965657596	0.054295406108
0	11665	109.741261063704	0.11271756603
0	11670	109.853978629734	0.007540929221
0	11672	109.861519558955	0.014026555096
0	11680	109.875546114051	0.010292321454
0	11685	109.885838435505	0.200800262576
0	11692	110.086638698081	0.011173637615
0	11697	110.097812335696	0.111611082682
0	11702	110.209423418378	0.022897993476
0	11707	110.232321411854	0.065287547654
0	11712	110.297608959508	0.06001593891
0	11717	110.357624898418	0.044219508484
0	11722	110.401844406902	0.32041082988
0	11727	110.722255236782	0.028686616813
0	11732	110.750941853595	0.005938567902
0	11734	110.756880421497	0.018400938295
0	11742	110.775281359792	0.019199145862
0	11747	110.794480505654	0.120853664226
0	11753	110.91533416988	0.040022832338
0	11758	110.955357002218	0.02995669105
0	11765	110.985313693268	0.083181256808
0	11773	111.068494950076	0.03313652829
0	11778	111.101631478366	0.014193309325
0	11783	111.115824787691	0.077063708831
0	11788	111.192888496522	0.036342990467
0	11793	111.229231486989	0.018994310777
0	11798	111.248225797766	0.027408265969
0	11803	111.275634063735	0.0851833501
0	11808	111.360817413835	0.004725877782
0	11810	111.365543291617	0.003646694477
0	11815	111.369189986094	0.073923494863
0	11824	111.443113480957	0.021088753133
0	11829	111.46420223409	0.018287595625
0	11834	111.482489829715	0.031206658544
0	11839	111.513696488259	0.029948797606
0	11846	111.543645285865	0.009180261117
0	11851	111.552825546982	0.003229175525
0	11853	111.556054722507	0.11977666543
0	11862	111.675831387937	0.21320685936
0	11869	111.889038247297	0.022680232279
0	11874	111.911718479576	0.064085244529
0	11880	111.975803724105	0.08440394477
0	11885	112.060207668875	0.026958396573
0	11890	112.087166065448	0.018662359704
0	11897	112.105828425152	0.02838110378
0	11902	112.134209528932	0.050955016924
0	11907	112.185164545856	0.076996631347
0	11912	112.262161177203	0.004751109184
0	11914	112.266912286387	0.035862011119
0	11923	112.302774297506	0.032770737435
0	11928	112.335545034941	0.032377404621
0	11933	112.367922439562	0.003340905885
0	11935	112.371263345447	0.05279965329
0	11943	112.424062998737	0.001803859264
0	11945	112.425866858001	0.082808087899
0	11954	112.5086749459	0.160410027858
0	11959	112.669084973758	0.080521625915
0	11964	112.749606599673	0.03786101871
0	11969	112.787467618383	0.063493210756
0	11974	112.850960829139	0.146700320606
[...]
19	20472	191.534965046445	1.0680917514696
19	20573	192.603056797915	1.3408996394217
19	20715	193.943956437337	1.1032122491227
19	20834	195.04716868646	0.043228354978224
19	20841	195.090397041438	3.0208451895601
19	21199	198.111242230998	8.2730545931154
19	22226	206.384296824113	0.55088806556548
19	22274	206.935184889678	0.52264690589108
19	22332	207.457831795569	0.005399842823651
19	22333	207.463231638393	0.59893450336708
19	22454	208.06216614176	1.676545805588
19	22629	209.738711947348	0.41083730270357
19	22649	210.149549250052	2.5285832302332
19	22839	212.678132480285	3.5282413911908
19	23161	216.206373871476	1.8387452777069
19	23354	218.045119149183	1.7457383730275
19	23513	219.79085752221	0.31677750338789
19	23534	220.107635025598	0.15785119271145
19	23545	220.265486218309	1.1695340785003
19	23637	221.435020296809	0.46639336135676
19	23719	221.901413658166	0.095487189711787
19	23731	221.996900847878	0.054574838646224
19	23733	222.051475686524	1.6798470278915
19	23911	223.731322714416	0.32921387173973
19	23979	224.060536586156	2.8044782466511
19	24341	226.865014832807	0.13171340375251
19	24358	226.99672823656	6.4609196281351
19	25040	233.457647864695	6.8686566767401
19	25875	240.326304541435	0.62093284760699
19	25947	240.947237389042	0.84407034536964
19	26053	241.791307734412	0.38784371238007
19	26085	242.179151446792	1.12338388369
19	26202	243.302535330482	0.53427522815507
19	26240	243.836810558637	0.3969458350615
19	26292	244.233756393698	7.8327740094702
19	27173	252.066530403168	0.74447055578303
19	27218	252.811000958951	2.5816233041963
19	27504	255.392624263147	1.1426134058104
19	27628	256.535237668957	3.3469312511814
19	27967	259.882168920138	5.0240195869273
19	28546	264.906188507065	0.61035268687333
19	28639	265.516541193938	0.70613535261848
19	28698	266.222676546556	1.0167087697917
19	28831	267.239385316348	3.4970130150547
19	29207	270.736398331403	0.74358468878182
19	29261	271.479983020185	0.22248200708731
19	29271	271.702465027272	0.16897795567188
19	29302	271.871442982944	0.22184642995683
19	29330	272.093289412901	0.59878441125603
19	29364	272.692073824157	0.41816182004108
19	29386	273.110235644198	0.78232168089255
19	29453	273.892557325091	4.5817024447345
19	30052	278.474259769826	2.6142504153655
19	30339	281.088510185192	3.4103065354662
19	30652	284.498816720658	9.4815553004577
19	31667	293.980372021116	1.9204562409076
19	31908	295.900828262024	3.0213620022869
19	32220	298.922190264311	1.0514141055001
19	32341	299.973604369811	0.051822846053334
19	32349	300.025427215864	1.6235185369637
19	32473	301.648945752828	1.9885336815899
19	32691	303.637479434418	7.2963082561972
19	33520	310.933787690615	1.4317545794054
19	33693	312.36554227002	0.23519574940339
19	33719	312.600738019423	0.18531390840806
19	33731	312.786051927831	1.866178130537
19	33892	314.652230058368	2.4430138088022
19	34117	317.09524386717	9.3848127282646
19	35107	326.480056595435	0.70582980037644
19	35199	327.185886395811	0.85811448726964
19	35260	328.044000883081	0.018897719650337
19	35261	328.062898602731	2.1073130454639
19	35496	330.170211648195	0.24964953687083
19	35530	330.419861185066	3.4085659928087
19	35907	333.828427177875	1.5215026089505
19	36038	335.349929786826	0.51317977098244
19	36093	335.863109557808	0.21914435368936
19	36107	336.082253911497	2.4486316609587
19	36421	338.530885572456	1.2460587409748
19	36573	339.776944313431	0.35615002926999
19	36600	340.133094342701	0.23932994394935
19	36651	340.37242428665	0.59761612190455
19	36724	340.970040408555	1.931615670232
19	36941	342.901656078787	2.6501655941427
19	37209	345.55182167293	0.093916261255676
19	37225	345.645737934186	0.089216804067066
19	37233	345.734954738253	4.0443757467849
19	37629	349.779330485038	2.8665615458055
19	37916	352.645892030843	6.8358807977585
19	38603	359.481772828602	3.7157658375226
19	39044	363.197538666125	1.9319857363036
19	39252	365.129524402429	0.3834083981001
19	39286	365.512932800529	0.57547412905223
19	39353	366.088406929581	1.1691044534162
19	39473	367.257511382997	0.14064146837887
19	39484	367.398152851376	1.6579554196504
19	39629	369.056108271026	0.66718113152491
19	39706	369.723289402551	1.9540680496239
19	39923	371.677357452175	6.5523664771504
19	40527	378.229723929325	1.0245591681214
19	40632	379.254283097446	0.84033597503114
19	40715	380.094619072477	0.73212369926695
19	40802	380.826742771744	0.45867572149564
19	40858	381.28541849324	0.20335024144447
19	40866	381.488768734684	0.52729315883171
19	40932	382.016061893516	1.7187110359509
19	41127	383.734772929467	1.095333316051
19	41274	384.830106245518	1.0111669499448
19	41369	385.841273195463	0.28025408559379
19	41416	386.121527281057	0.028664654457295
19	41420	386.150191935514	5.1716490836543
19	41942	391.321841019168	3.4604262717425
19	42268	394.78226729091	3.3131427754879
19	42583	398.095410066398	1.3857497494067
19	42746	399.481159815805	4.9461689338328
20	1578	14.756489378403	4.2263606636814
20	2106	18.982850042084	4.1344815415225
20	2547	23.117331583607	2.1033902209
20	2806	25.220721804507	2.3285057319571
20	3038	27.549227536464	0.079261513491423
20	3049	27.628489049955	5.7525835670244
20	3586	33.381072616979	4.5021941415982
20	4057	37.883266758577	0.27550105532675
20	4088	38.158767813904	1.8893019569727
20	4287	40.048069770877	5.7169349799085
20	4989	45.765004750786	0.14124434491137
20	4998	45.906249095697	2.0715168201723
20	5176	47.977765915869	0.76088697197448
20	5275	48.738652887843	1.8661723129875
20	5463	50.60482520083	0.93152790587801
20	5553	51.536353106708	0.50539751801264
20	5605	52.041750624721	1.7083347188951
20	5781	53.750085343616	0.51866973894794
20	5860	54.268755082564	1.3458922403147
20	6018	55.614647322879	0.54968969210704
20	6085	56.164337014986	0.31237254145454
20	6129	56.476709556441	6.3378326573915
20	6836	62.814542213833	1.0258558408893
20	6943	63.840398054722	1.3848203804912
20	7066	65.225218435213	0.12674877182928
20	7089	65.351967207042	7.5349190032854
20	7856	72.886886210327	0.0095200305930821
20	7859	72.89640624092	0.56364872262243
20	7931	73.460054963542	0.56056588756733
20	8009	74.020620851109	1.0977465251468
20	8141	75.118367376256	1.0340483781037
20	8250	76.15241575436	0.37093507273279
20	8316	76.523350827093	0.1077062837939
20	8320	76.631057110887	3.8495202157633
20	8640	80.48057732665	3.4974759801958
20	8938	83.978053306846	3.9853864272544
20	9312	87.9634397341	3.6981735605963
20	9669	91.661613294696	1.1791522358672
20	9802	92.840765530563	6.4630402070973
20	10522	99.30380573766	24.444142761835
20	13168	123.747948499495	3.920426914974
20	13608	127.668375414469	1.0060085663602
20	13717	128.674383980829	0.01376047269135
20	13721	128.68814445352	9.9036257857896
20	14688	138.59177023931	3.4394765493691
20	15145	142.031246788679	1.7157056175096
20	15346	143.746952406189	2.6755519329699
20	15562	146.422504339159	0.36601580230823
20	15609	146.788520141467	1.9630704050063
20	15845	148.751590546473	0.52643400437705
20	15896	149.27802455085	4.7735922772289
20	16396	154.051616828079	0.27627663744563
20	16427	154.327893465525	1.6029294032478
20	16634	155.930822868773	0.19507203107713
20	16665	156.12589489985	1.0137545354825
20	16788	157.139649435332	0.15718327176634
20	16822	157.296832707098	0.49127858352943
20	16876	157.788111290627	0.017227326740903
20	16877	157.805338617368	1.4420230133743
20	17034	159.247361630742	0.15063953602453
20	17066	159.398001166767	2.6339066882597
20	17374	162.031907855027	1.025154665753
20	17509	163.05706252078	2.1137663188743
20	17702	165.170828839654	2.8903783900931
20	18001	168.061207229747	0.11106911177889
20	18013	168.172276341526	7.340246134027
20	18833	175.512522475553	0.006724978319797
20	18836	175.519247453873	0.061773493346524
20	18840	175.58102094722	0.66129270810426
20	18895	176.242313655324	1.2050152979331
20	19053	177.447328953257	0.42784581926228
20	19134	177.875174772519	0.4249317412018
20	19199	178.300106513721	1.0198692687226
20	19294	179.319975782444	1.2345207378845
20	19433	180.554496520328	1.4759692857095
20	19608	182.030465806037	2.3751616328895
20	19829	184.405627438927	4.7258400550028
20	20239	189.13146749393	0.089471699931502
20	20240	189.220939193862	7.9133836082477
20	21045	197.13432280211	0.361882248289
20	21097	197.496205050399	0.86380397070027
20	21240	198.360009021099	0.018938437166805
20	21241	198.378947458266	0.35499905745262
20	21281	198.733946515719	0.73397098605743
20	21384	199.467917501776	2.4680546682814
20	21668	201.935972170057	0.036190826096225
20	21672	201.972162996153	2.5877826002755
20	22006	204.559945596429	0.75211775160218
20	22087	205.312063348031	4.8204485066794
20	22648	210.13251185471	4.0114226061445
20	22964	214.143934460854	1.8845506138851
20	23147	216.028485074739	1.9595244861118
20	23346	217.988009560851	5.6592962884773
20	23904	223.647305849328	0.78349832557911
20	24007	224.430804174907	6.5915774490763
20	24805	231.022381623983	0.079502987348616
20	24806	231.101884611332	6.4823392115999
20	25546	237.584223822932	0.48211649798007
20	25601	238.066340320912	0.36274527929995
20	25649	238.429085600212	2.4029165020837
20	25930	240.832002102296	0.65670171809066
20	26024	241.488703820387	0.60843859592256
20	26084	242.09714241631	0.29054293851272
20	26119	242.387685354823	4.8971284105234
20	26628	247.284813765346	1.3212034971718
20	26768	248.606017262518	6.6610894604111
20	27491	255.267106722929	0.73768021173865
20	27591	256.004786934668	2.1377493407394
20	27816	258.142536275407	2.4192238304443
20	28050	260.561760105851	0.9738084184687
20	28160	261.53556852432	0.033258784478099
20	28162	261.568827308798	0.053138632162451
20	28174	261.62196594096	6.302313135133
20	28875	267.924279076093	1.648126067055
20	29071	269.572405143148	2.1351137498788
20	29272	271.707518893027	3.5897986478461
20	29639	275.297317540873	1.8263539534622
20	29893	277.123671494335	2.4374448926681
20	30148	279.561116387003	4.7608108458161
20	30603	284.321927232819	3.2286080849385
20	30975	287.550535317758	6.114371802878
20	31618	293.664907120636	0.73845931468273
20	31735	294.403366435319	1.6684981769174
20	31937	296.071864612236	0.48104293582191
20	31967	296.552907548058	6.9041945594998
20	32677	303.457102107558	5.4399724590471
20	33287	308.897074566605	1.3893371438297
20	33449	310.286411710435	0.38505958231282
20	33488	310.671471292748	0.58468036195583
20	33555	311.256151654704	1.8257445199576
20	33754	313.081896174662	3.7135807905579
20	34087	316.79547696522	0.094946905464643
20	34099	316.890423870685	2.3963652513513
20	34344	319.286789122036	2.1799917063985
20	34582	321.466780828434	1.7833376789397
20	34725	323.250118507374	2.8497011729595
20	35049	326.099819680333	1.3354989568137
20	35223	327.435318637147	1.2718754152333
20	35328	328.70719405238	1.9197696034996
20	35554	330.62696365588	0.18302775044823
20	35583	330.809991406328	3.6760865985672
20	35959	334.486078004895	0.73140615714371
20	36032	335.217484162039	0.35257619252908
20	36065	335.570060354568	0.44713633465193
20	36101	336.01719668922	8.7978049681075
20	37143	344.815001657327	2.8924425348296
20	37406	347.707444192157	2.2148546330533
20	37636	349.92229882521	0.98684196068926
20	37738	350.909140785899	2.8251632126988
20	38051	353.734303998598	0.18256857028985
20	38079	353.916872568888	2.3562271245544
20	38325	356.273099693442	1.045395810225
20	38409	357.318495503667	0.49980071175704
20	38459	357.818296215424	2.1045330271463
20	38681	359.92282924257	0.67103972180195
20	38772	360.593868964372	3.2361266080484
20	39121	363.82999557242	2.2368122194669
20	39345	366.066807791887	0.22276785247572
20	39378	366.289575644363	0.011441672659866
20	39379	366.301017317023	0.39675236301325
20	39414	366.697769680036	5.3897873260106
20	39950	372.087557006047	2.4016582953971
20	40150	374.489215301444	0.83964518462129
20	40216	375.328860486065	1.3285533701081
20	40360	376.657413856173	4.2288142328716
20	40823	380.886228089045	3.4657211646122
20	41222	384.351949253657	0.35359916870414
20	41261	384.705548422361	1.7065835280682
20	41444	386.412131950429	2.6087929303294
20	41721	389.020924880758	2.992922766852
20	42011	392.01384764761	0.34268968186983
20	42029	392.35653732948	0.79420377455575
20	42131	393.150741104036	5.6865213763348
20	42653	398.837262480371	1.6011407125294
21	2191	19.594327019	1.1884800972207
21	2291	20.782807116221	0.36162580865752
21	2305	21.144432924879	1.0664395237534
21	2439	22.210872448632	0.6738449860345
21	2516	22.884717434666	4.9994747772853
21	3071	27.884192211951	3.0673585021489
21	3358	30.9515507141	1.5726785458181
21	3488	32.524229259918	1.9988159917626
21	3725	34.523045251681	7.0867724293965
21	4512	41.609817681078	2.5022474164817
21	4787	44.11206509756	3.6302301418783
21	5158	47.742295239438	0.94641460788419
21	5264	48.688709847322	3.7411200374928
21	5648	52.429829884815	4.5393314808456
21	6182	56.969161365661	0.78697689475957
21	6279	57.756138260421	4.9766661870518
21	6835	62.732804447473	0.20330930048803
21	6844	62.936113747961	2.90653318451
21	7126	65.842646932471	1.559164389408
21	7366	67.401811321879	0.26395011827154
21	7410	67.665761440151	1.1000237033268
21	7469	68.765785143478	1.3849569141721
21	7593	70.15074205765	0.18083220666492
21	7620	70.331574264315	0.95931728593805
21	7723	71.290891550253	0.062661578184708
21	7729	71.353553128438	3.6744081966903
21	8135	75.027961325128	0.3539955488116
21	8169	75.38195687394	0.11758654433767
21	8177	75.499543418278	0.44388735163006
21	8216	75.943430769908	0.19021096463475
21	8244	76.133641734543	2.5433536538673
21	8492	78.67699538841	0.96458789166728
21	8556	79.641583280077	0.07169114001127
21	8557	79.713274420088	0.31693661959386
21	8593	80.030211039682	1.6497382311885
21	8764	81.679949270871	1.4712539258535
21	8878	83.151203196724	1.0029245507232
21	8955	84.154127747447	0.26023641563553
21	8958	84.414364163083	3.0370357000303
21	9266	87.451399863113	0.21818904920783
21	9279	87.669588912321	1.4631940407118
21	9433	89.132782953033	2.1877673685905
21	9640	91.320550321623	2.9454804437121
21	9955	94.266030765335	1.4731741489993
21	10127	95.739204914334	1.8059198625153
21	10376	97.545124776849	3.8007368664087
21	10752	101.345861643258	0.29606713985317
21	10801	101.641928783111	1.9548146492712
21	11050	103.596743432382	2.2101859947256
21	11287	105.806929427108	1.721242030433
21	11457	107.528171457541	3.4532304534605
21	11763	110.981401911002	0.46068032360333
21	11823	111.442082234605	0.64663710001385
21	11892	112.088719334619	3.4423750697539
21	12249	115.531094404373	0.85441651030357
21	12323	116.385510914677	0.12607871558539
21	12340	116.511589630262	0.79261563959083
21	12438	117.304205269853	1.3166291293743
21	12571	118.620834399227	1.4141060967532
21	12758	120.03494049598	0.34123055439379
21	12803	120.376171050374	0.13992157249431
21	12831	120.516092622868	0.60245566267786
21	12912	121.118548285546	1.7533495099372
21	13061	122.871897795483	0.45963824082024
21	13123	123.331536036303	1.7357314093408
21	13346	125.067267445644	4.2159709490117
21	13770	129.283238394656	0.4757819380916
21	13837	129.759020332748	1.5125651499128
21	13999	131.271585482661	0.458788795724
21	14048	131.730374278385	0.16162417880928
21	14062	131.891998457194	2.607146562979
21	14347	134.499145020173	1.8407579881442
21	14518	136.339903008317	0.86335143597077
21	14562	137.203254444288	1.0229481641132
21	14660	138.226202608401	3.8071991763568
21	15146	142.033401784758	1.636805989553
21	15343	143.670207774311	2.1387463745965
21	15505	145.808954148908	0.64928123230989
21	15566	146.458235381218	0.56782534754254
21	15642	147.026060728761	4.7124462036794
21	16109	151.73850693244	2.1432586996184
21	16384	153.881765632058	5.2429146870074
21	17014	159.124680319065	0.14087389017286
21	17043	159.265554209238	1.0277865324777
21	17143	160.293340741716	0.89383274405745
21	17254	161.187173485773	2.9687049233483
21	17614	164.155878409121	2.0122548452093
21	17828	166.16813325433	3.0646526116265
21	18109	169.232785865957	2.6619460811286
21	18417	171.894731947086	4.787443169143
21	18943	176.682175116229	1.5444836722075
21	19188	178.226658788436	1.4227525811353
21	19330	179.649411369571	0.93117623183552
21	19436	180.580587601407	2.3289465207876
21	19685	182.909534122195	0.031775688333181
21	19693	182.941309810528	2.8895521525159
21	19929	185.830861963044	0.13118100190651
21	19936	185.962042964951	4.4448602846379
21	20357	190.406903249589	1.0040733458182
21	20449	191.410976595407	4.8522062215655
21	20964	196.263182816973	2.4359949490206
21	21275	198.699177765994	0.32520791400344
21	21346	199.024385679997	4.8005528077552
21	21927	203.824938487752	1.3172729194882
21	22074	205.14221140724	0.18853363916306
21	22088	205.330745046403	0.73253334740339
21	22208	206.063278393806	1.2972377776742
21	22321	207.36051617148	2.5566965167728
21	22636	209.917212688253	1.4679995526494
21	22743	211.385212240902	10.662628991888
21	23732	222.04784123279	4.3834984158825
21	24294	226.431339648673	0.11737547038903
21	24302	226.548715119062	6.0011763937151
21	24918	232.549891512777	1.657145579207
21	25156	234.207037091984	0.33290603630799
21	25214	234.539943128292	0.15527582325103
21	25231	234.695218951543	2.6615516139351
21	25520	237.356770565478	1.3283825638138
21	25688	238.685153129292	2.3571855645238
21	25969	241.042338693816	4.2008896974441
21	26403	245.24322839126	0.07358708707345
21	26419	245.316815478333	0.11505063064822
21	26440	245.431866108981	0.441492812786
21	26484	245.873358921767	3.2357629796213
21	26865	249.109121901388	3.1617420122294
21	27184	252.270863913617	2.0663031517154
21	27385	254.337167065332	6.5930403754734
21	28105	260.930207440805	0.48333107988486
21	28149	261.41353852069	4.2682519540969
21	28652	265.681790474787	5.9193315168016
21	29267	271.601121991589	0.11039558565421
21	29276	271.711517577243	3.2735442471678
21	29625	274.985061824411	0.53602209539614
21	29677	275.521083919807	2.2859705145137
21	29979	277.807054434321	9.3569575897335
21	30904	287.164012024055	10.191082546649
21	32035	297.355094570704	3.465551371321
21	32416	300.820645942025	0.089620816436768
21	32423	300.910266758462	2.4807113833001
21	32671	303.390978141762	1.2509952166542
21	32787	304.641973358416	1.4301842357296
21	32960	306.072157594146	0.061446460137502
21	32976	306.133604054284	12.553365956397
21	34277	318.686970010681	1.9249991891007
21	34475	320.611969199782	0.33372858298649
21	34523	320.945697782768	0.99898682815659
21	34620	321.944684610925	2.7856803901729
21	34913	324.730365001098	1.1845620676154
21	35028	325.914927068713	0.88784223469972
21	35160	326.802769303413	2.3299215693794
21	35388	329.132690872792	8.7827459116203
21	36351	337.915436784412	1.5451973038961
21	36531	339.460634088308	1.5289974946197
21	36725	340.989631582928	3.021487504664
21	37049	344.011119087592	2.5854781619239
21	37304	346.596597249516	2.5053495012878
21	37534	349.101946750804	0.38089475680268
21	37571	349.482841507607	0.95153124328791
21	37700	350.434372750895	0.41380225324877
21	37737	350.848175004144	3.041635697603
21	38075	353.889810701747	0.44624020340327
21	38128	354.33605090515	1.6210209983849
21	38291	355.957071903535	2.1544707897206
21	38482	358.111542693256	0.53967346611519
21	38527	358.651216159371	0.63868082841432
21	38595	359.289896987785	0.15296783533475
21	38602	359.44286482312	1.5311747778293
21	38828	360.974039600949	0.39652300912979
21	38842	361.370562610079	7.5886611243465
21	39613	368.959223734425	0.49707918743536
21	39672	369.45630292186	0.065786306216036
21	39673	369.522089228076	2.7471650449596
21	39963	372.269254273036	1.4408713771377
21	40075	373.710125650174	0.198793223551
21	40098	373.908918873725	1.0744821748688
21	40195	374.983401048594	2.8918218116608
21	40483	377.875222860255	0.56926397632674
21	40547	378.444486836582	1.2907252284084
21	40666	379.73521206499	0.18227023783093
21	40680	379.917482302821	1.2153370599273
21	40840	381.132819362748	3.4403203085321
21	41243	384.57313967128	0.085630267735119
21	41255	384.658769939015	1.0170647794325
21	41353	385.675834718448	0.40628184021796
21	41415	386.082116558666	0.62240132769185
21	41485	386.704517886358	9.5133066149367
21	42404	396.217824501295	1.1386703042741
21	42526	397.356494805569	3.8594726532468

