version 2
run Nonmonitoring-exponential-511-20210224-17:49:29-27046
attr configname Nonmonitoring-exponential
attr datetime 20210224-17:49:29
attr experiment Nonmonitoring-exponential
attr inifile aerocom.ini
attr iterationvars $0=50
attr iterationvarsf 50-
attr measurement $0=50
attr network Aerocom
attr processid 27046
attr repetition 11
attr replication #11
attr resultdir results
attr runnumber 511
attr seedset 11
param **.t 2s
param **.k 50ms
param **.X 0.05s
param **.m 1s
param **.tDistribution "\"exponential\""
param **.operationMode 1
param **.s "70 byte"
param **.dimPoolMax 10000
param **.dimPoolMin 8000
param **.nDL 16
param **.nA 1
param **.DLMaxCapacity 0
param **.trasmitting false

vector 0 Aerocom.aircraft[0].packetGenerator arrivalTime:vector ETV
attr "" ""
attr source computeArrivalTime
vector 1 Aerocom.aircraft[0].linkSelector waitingTime:vector ETV
attr "" ""
attr source computeWaitingTime
vector 2 Aerocom.aircraft[0].linkSelector queueLength:vector ETV
attr "" ""
attr source computeQueueLength
vector 3 Aerocom.aircraft[0].dataLink[8] actualCapacity:vector ETV
attr "" ""
attr source computeActualCapacity
vector 4 Aerocom.aircraft[0].linkSelector serviceTime:vector ETV
attr "" ""
attr source computeServiceTime
vector 5 Aerocom.aircraft[0].linkSelector responseTime:vector ETV
attr "" ""
attr source computeResponseTime
vector 6 Aerocom.aircraft[0].dataLink[8] tDistribution:vector ETV
attr "" ""
attr source computeTDistribution
vector 7 Aerocom.aircraft[0].dataLink[14] tDistribution:vector ETV
attr "" ""
attr source computeTDistribution
vector 8 Aerocom.aircraft[0].dataLink[13] tDistribution:vector ETV
attr "" ""
attr source computeTDistribution
vector 9 Aerocom.aircraft[0].dataLink[5] tDistribution:vector ETV
attr "" ""
attr source computeTDistribution
vector 10 Aerocom.aircraft[0].dataLink[10] tDistribution:vector ETV
attr "" ""
attr source computeTDistribution
vector 11 Aerocom.aircraft[0].dataLink[7] tDistribution:vector ETV
attr "" ""
attr source computeTDistribution
vector 12 Aerocom.aircraft[0].dataLink[11] tDistribution:vector ETV
attr "" ""
attr source computeTDistribution
vector 13 Aerocom.aircraft[0].dataLink[6] tDistribution:vector ETV
attr "" ""
attr source computeTDistribution
vector 14 Aerocom.aircraft[0].dataLink[1] tDistribution:vector ETV
attr "" ""
attr source computeTDistribution
vector 15 Aerocom.aircraft[0].dataLink[4] tDistribution:vector ETV
attr "" ""
attr source computeTDistribution
vector 16 Aerocom.aircraft[0].dataLink[0] tDistribution:vector ETV
attr "" ""
attr source computeTDistribution
vector 17 Aerocom.aircraft[0].dataLink[12] tDistribution:vector ETV
attr "" ""
attr source computeTDistribution
vector 18 Aerocom.aircraft[0].dataLink[2] tDistribution:vector ETV
attr "" ""
attr source computeTDistribution
vector 19 Aerocom.aircraft[0].dataLink[15] tDistribution:vector ETV
attr "" ""
attr source computeTDistribution
vector 20 Aerocom.aircraft[0].dataLink[3] tDistribution:vector ETV
attr "" ""
attr source computeTDistribution
vector 21 Aerocom.aircraft[0].dataLink[9] tDistribution:vector ETV
attr "" ""
attr source computeTDistribution
0	1020	10.087179126583	0.008213552004
0	1022	10.095392678587	0.108348388998
0	1031	10.203741067585	0.063213214445
0	1036	10.26695428203	0.02296116507
0	1041	10.2899154471	0.037773778959
0	1046	10.327689226059	0.020914513267
0	1051	10.348603739326	0.028394180737
0	1056	10.376997920063	0.095080345527
0	1061	10.47207826559	0.102334480295
0	1067	10.574412745885	0.024607868047
0	1072	10.599020613932	0.065167531211
0	1077	10.664188145143	0.054891784749
0	1082	10.719079929892	0.083228632116
0	1087	10.802308562008	0.029309839893
0	1092	10.831618401901	0.087770405339
0	1098	10.91938880724	0.046944737802
0	1103	10.966333545042	0.019277777033
0	1108	10.985611322075	0.076721466708
0	1113	11.062332788783	0.102993356658
0	1120	11.165326145441	0.172063484932
0	1127	11.337389630373	0.008603331105
0	1132	11.345992961478	0.023361815686
0	1138	11.369354777164	0.029194458872
0	1143	11.398549236036	0.055847616252
0	1149	11.454396852288	0.203570537542
0	1157	11.65796738983	0.082429738486
0	1163	11.740397128316	0.00155561376
0	1165	11.741952742076	0.059777113944
0	1173	11.80172985602	0.012022893914
0	1178	11.813752749934	0.082028391938
0	1183	11.895781141872	0.193004133912
0	1189	12.088785275784	0.015532083013
0	1194	12.104317358797	0.00427678942
0	1196	12.108594148217	0.019173040805
0	1204	12.127767189022	0.004930033648
0	1206	12.13269722267	0.008715564982
0	1211	12.141412787652	0.036441277866
0	1220	12.177854065518	0.084661229
0	1226	12.262515294518	0.012387702961
0	1231	12.274902997479	0.103089609974
0	1236	12.377992607453	0.00727177992
0	1238	12.385264387373	0.087412996016
0	1246	12.472677383389	0.101222247595
0	1251	12.573899630984	0.070368437236
0	1257	12.64426806822	0.06175101912
0	1263	12.70601908734	0.036399212132
0	1268	12.742418299472	0.055056827794
0	1274	12.797475127266	0.040225882953
0	1279	12.837701010219	0.088381884524
0	1284	12.926082894743	0.040837367421
0	1290	12.966920262164	0.041934092521
0	1295	13.008854354685	0.253507603655
0	1303	13.26236195834	0.015327679658
0	1308	13.277689637998	0.215387705621
0	1314	13.493077343619	0.015172755097
0	1319	13.508250098716	0.035685998232
0	1325	13.543936096948	0.010616757383
0	1330	13.554552854331	0.070462058702
0	1336	13.625014913033	0.048198393839
0	1342	13.673213306872	0.137910810026
0	1348	13.811124116898	0.251847441924
0	1353	14.062971558822	0.060526393777
0	1358	14.123497952599	0.014343379862
0	1363	14.137841332461	0.028305840494
0	1368	14.166147172955	0.0206220417
0	1373	14.186769214655	0.006508042872
0	1375	14.193277257527	0.052232178126
0	1383	14.245509435653	0.049751381513
0	1388	14.295260817166	0.034086098627
0	1393	14.329346915793	0.072917251842
0	1399	14.402264167635	0.004659854031
0	1401	14.406924021666	0.015285174006
0	1409	14.422209195672	0.012295815835
0	1414	14.434505011507	0.00657588433
0	1416	14.441080895837	0.026896870327
0	1424	14.467977766164	0.064128940677
0	1430	14.532106706841	0.04747195381
0	1435	14.579578660651	0.015694188393
0	1440	14.595272849044	0.019793812962
0	1445	14.615066662006	0.015361875719
0	1450	14.630428537725	0.118926207455
0	1455	14.74935474518	0.011238712044
0	1460	14.760593457224	0.12462564524
0	1466	14.885219102464	0.097584901053
0	1471	14.982804003517	0.056512489434
0	1476	15.039316492951	0.041367916452
0	1481	15.080684409403	0.042509156977
0	1486	15.12319356638	0.015655621743
0	1491	15.138849188123	0.003437936785
0	1493	15.142287124908	0.032474563462
0	1502	15.17476168837	0.020131298372
0	1508	15.194892986742	0.027421417161
0	1513	15.222314403903	0.03249863873
0	1519	15.254813042633	0.046825835415
0	1524	15.301638878048	0.064539541661
0	1529	15.366178419709	0.063432582108
0	1535	15.429611001817	0.003577833097
0	1537	15.433188834914	0.030998587906
0	1545	15.46418742282	0.073581911953
0	1552	15.537769334773	0.024449577009
0	1557	15.562218911782	0.027391238588
0	1563	15.58961015037	0.002766896017
0	1565	15.592377046387	0.040758855609
0	1574	15.633135901996	0.001953680076
0	1576	15.635089582072	0.095200900332
0	1585	15.730290482404	0.010268630637
0	1590	15.740559113041	0.04765032139
0	1596	15.788209434431	0.001493581833
0	1599	15.789703016264	0.007836632413
0	1604	15.797539648677	0.064272569635
0	1612	15.861812218312	0.100639476883
0	1620	15.962451695195	0.015659879551
0	1625	15.978111574746	0.05539443732
0	1631	16.033506012066	0.10367310491
0	1636	16.137179116976	0.058439551959
0	1641	16.195618668935	0.007131130904
0	1647	16.202749799839	0.070824587106
0	1653	16.273574386945	0.081200679177
0	1659	16.354775066122	0.176232050061
0	1665	16.531007116183	0.042337060757
0	1670	16.57334417694	0.022622594096
0	1675	16.595966771036	0.07319147245
0	1681	16.669158243486	0.055999912737
0	1686	16.725158156223	0.082242339203
0	1692	16.807400495426	0.057150702989
0	1697	16.864551198415	0.021619672433
0	1702	16.886170870848	0.010976826886
0	1708	16.897147697734	0.010854085814
0	1713	16.908001783548	0.091870793802
0	1720	16.99987257735	0.01407792844
0	1726	17.01395050579	0.038822398892
0	1731	17.052772904682	0.026051325343
0	1736	17.078824230025	0.055013054617
0	1742	17.133837284642	0.088618118862
0	1747	17.222455403504	0.059724125358
0	1752	17.282179528862	0.138080187592
0	1759	17.420259716454	0.019095039846
0	1764	17.4393547563	0.043239642358
0	1769	17.482594398658	0.034155138755
0	1775	17.516749537413	0.081251988158
0	1780	17.598001525571	0.192391024666
0	1786	17.790392550237	0.041942075936
0	1791	17.832334626173	0.052639950523
0	1796	17.884974576696	0.021942789776
0	1801	17.906917366472	0.003031126262
0	1803	17.909948492734	0.062313066629
0	1811	17.972261559363	0.000514167091
0	1813	17.972775726454	0.012252368123
0	1818	17.985028094577	0.048159880748
0	1826	18.033187975325	0.012729994873
0	1831	18.045917970198	0.012249092818
0	1836	18.058167063016	0.020947100059
0	1841	18.079114163075	0.125135575234
0	1848	18.204249738309	0.022809560153
0	1853	18.227059298462	0.04960434904
0	1858	18.276663647502	0.025750713152
0	1863	18.302414360654	0.035713181524
0	1868	18.338127542178	0.020450354113
0	1873	18.358577896291	0.071852995411
0	1879	18.430430891702	0.027871360908
0	1884	18.45830225261	0.006880625734
0	1886	18.465182878344	0.096965290503
0	1894	18.562148168847	0.006612141046
0	1896	18.568760309893	0.00249086565
0	1901	18.571251175543	0.092042646963
0	1911	18.663293822506	0.007872162568
0	1916	18.671165985074	0.005953094888
0	1918	18.677119079962	0.052307813182
0	1927	18.729426893144	0.018796290964
0	1932	18.748223184108	0.078584739831
0	1940	18.826807923939	0.097140769265
0	1945	18.923948693204	0.006662136188
0	1947	18.930610829392	0.040748141788
0	1955	18.97135897118	0.024642203078
0	1960	18.996001174258	0.067437984253
0	1966	19.063439158511	0.026672334219
0	1971	19.09011149273	0.004674058845
0	1973	19.094785551575	0.027856551894
0	1981	19.122642103469	0.042357965558
0	1986	19.165000069027	0.041439306378
0	1992	19.206439375405	0.035846010818
0	1998	19.242285386223	0.050967355191
0	2003	19.293252741414	0.026799775805
0	2008	19.320052517219	0.007973712883
0	2013	19.328026230102	0.072337506061
0	2018	19.400363736163	0.011431372271
0	2023	19.411795108434	0.022795952112
0	2028	19.434591060546	0.002540533569
0	2030	19.437131594115	0.003959796063
0	2032	19.441091390178	0.00722185863
0	2037	19.448313248808	0.040448273636
0	2048	19.488761522444	0.076040177705
0	2055	19.564801700149	0.042945428134
0	2060	19.607747128283	0.051946154953
0	2066	19.659693283236	0.007881069449
0	2071	19.667574352685	0.020304802854
0	2076	19.687879155539	0.014059538936
0	2081	19.701938694475	0.0271528457
0	2086	19.729091540175	0.012298700801
0	2091	19.741390240976	0.151257897926
0	2097	19.892648138902	0.037160998168
0	2103	19.92980913707	0.115261592521
0	2109	20.045070729591	0.033504168821
0	2114	20.078574898412	0.027925617181
0	2119	20.106500515593	0.015646815037
0	2124	20.12214733063	0.037479525469
0	2130	20.159626856099	0.054293372197
0	2135	20.213920228296	0.087886314831
0	2141	20.301806543127	0.017722586476
0	2146	20.319529129603	0.139881791135
0	2153	20.459410920738	0.025623725138
0	2158	20.485034645876	0.038131675619
0	2164	20.523166321495	0.004385229701
0	2166	20.527551551196	0.037780163205
0	2175	20.565331714401	0.196876097571
0	2182	20.762207811972	0.03043526846
0	2187	20.792643080432	0.035614697212
0	2192	20.828257777644	0.029770629953
0	2197	20.858028407597	0.004135399799
0	2199	20.862163807396	0.009194751748
0	2204	20.871358559144	0.018746953096
0	2212	20.89010551224	0.023700611533
0	2217	20.913806123773	0.093179489036
0	2222	21.006985612809	0.138847911692
0	2228	21.145833524501	0.060522652877
0	2233	21.206356177378	0.045417401759
0	2240	21.251773579137	0.06094653238
0	2247	21.312720111517	0.040974692895
0	2252	21.353694804412	0.020741218621
0	2257	21.374436023033	0.136305739958
0	2262	21.510741762991	0.132565850818
0	2267	21.643307613809	0.037835238234
0	2272	21.681142852043	0.022652793241
0	2277	21.703795645284	0.076070012755
0	2282	21.779865658039	0.031832903209
0	2287	21.811698561248	0.051099211749
0	2292	21.862797772997	0.174627187907
0	2299	22.037424960904	0.000133744448
0	2301	22.037558705352	0.076615807885
0	2310	22.114174513237	0.034949174013
0	2315	22.14912368725	0.121300882709
0	2324	22.270424569959	0.058241260781
0	2329	22.32866583074	0.289374788677
0	2336	22.618040619417	0.002431462846
0	2338	22.620472082263	0.038250302495
0	2346	22.658722384758	0.017277450605
0	2351	22.675999835363	0.002384845845
0	2353	22.678384681208	0.057732386339
0	2362	22.736117067547	0.041226520972
0	2367	22.777343588519	0.097302921912
0	2373	22.874646510431	0.004415853006
0	2375	22.879062363437	0.004087586641
0	2380	22.883149950078	0.085680577014
0	2389	22.968830527092	0.026169707521
0	2394	22.995000234613	0.077728420971
0	2399	23.072728655584	0.12368777282
0	2405	23.196416428404	0.013932477271
0	2410	23.210348905675	0.018008631317
0	2415	23.228357536992	0.045422858067
0	2421	23.273780395059	0.031190675369
0	2427	23.304971070428	0.012948695011
0	2432	23.317919765439	0.062877745901
0	2437	23.38079751134	0.18649630006
0	2444	23.5672938114	0.017141353072
0	2449	23.584435164472	0.03655486709
0	2454	23.620990031562	0.066545232077
0	2462	23.687535263639	0.007074878204
0	2464	23.694610141843	0.025561210138
0	2473	23.720171351981	0.132138589556
0	2478	23.852309941537	0.018764025232
0	2483	23.871073966769	0.125624249161
0	2488	23.99669821593	0.02296832175
0	2493	24.01966653768	0.052421572447
0	2498	24.072088110127	0.007936304407
0	2503	24.080024414534	0.003319292485
0	2505	24.083343707019	0.041920388425
0	2513	24.125264095444	0.027699859085
0	2518	24.152963954529	0.091622082235
0	2524	24.244586036764	0.027776152302
0	2529	24.272362189066	0.002472542565
0	2531	24.274834731631	0.025069361001
0	2539	24.299904092632	0.091607335632
0	2545	24.391511428264	0.021794152296
0	2550	24.41330558056	0.052420910869
0	2556	24.465726491429	0.038628756815
0	2561	24.504355248244	0.031784467721
0	2566	24.536139715965	0.008384494931
0	2571	24.544524210896	0.185669295318
0	2576	24.730193506214	0.117538185853
0	2581	24.847731692067	0.052965342633
0	2586	24.9006970347	0.082404269555
0	2591	24.983101304255	0.009540674079
0	2596	24.992641978334	0.075441591307
0	2603	25.068083569641	0.014590593945
0	2608	25.082674163586	0.023555871394
0	2614	25.10623003498	0.110713480044
0	2619	25.216943515024	0.170515630221
0	2626	25.387459145245	0.003657445672
0	2628	25.391116590917	0.121107190206
0	2636	25.512223781123	0.023134475561
0	2641	25.535358256684	0.025934371948
0	2646	25.561292628632	0.046127773905
0	2651	25.607420402537	0.073507988983
0	2656	25.68092839152	0.207521522319
0	2662	25.888449913839	0.071015004487
0	2667	25.959464918326	0.125073340826
0	2674	26.084538259152	0.007308294504
0	2676	26.091846553656	0.016608707382
0	2685	26.108455261038	0.017887717024
0	2691	26.126342978062	0.001027765738
0	2693	26.1273707438	0.056043198293
0	2702	26.183413942093	0.062430269157
0	2707	26.24584421125	0.042048550486
0	2713	26.287892761736	0.174496813648
0	2719	26.462389575384	0.074755261996
0	2724	26.53714483738	0.007834796521
0	2729	26.544979633901	0.047956503144
0	2734	26.592936137045	0.000361787318
0	2736	26.593297924363	0.085834433348
0	2746	26.679132357711	0.052023025344
0	2751	26.731155383055	0.023459713716
0	2756	26.754615096771	0.213758508643
0	2765	26.968373605414	0.104007896377
0	2771	27.072381501791	0.132697527508
0	2777	27.205079029299	0.003239128666
0	2779	27.208318157965	0.064389912268
0	2787	27.272708070233	0.002048939447
0	2789	27.27475700968	0.106154020079
0	2799	27.380911029759	0.048184698647
0	2804	27.429095728406	0.001059155628
0	2806	27.430154884034	0.037426504533
0	2815	27.467581388567	0.047727902824
0	2820	27.515309291391	0.197074000691
0	2827	27.712383292082	0.001350017217
0	2829	27.713733309299	0.031344101856
0	2837	27.745077411155	0.064545864773
0	2843	27.809623275928	0.08351987603
0	2849	27.893143151958	0.037414377865
0	2855	27.930557529823	0.075992195283
0	2860	28.006549725106	0.121114775059
0	2865	28.127664500165	0.201212330187
0	2871	28.328876830352	0.016099682303
0	2876	28.344976512655	0.189327853571
0	2882	28.534304366226	0.002445554051
0	2884	28.536749920277	0.07596924181
0	2893	28.612719162087	0.001886685676
0	2895	28.614605847763	0.002052513564
0	2897	28.616658361327	0.010485606391
0	2902	28.627143967718	0.059670056879
0	2914	28.686814024597	0.053058663725
0	2919	28.739872688322	0.045498509362
0	2925	28.785371197684	0.079244150364
0	2930	28.864615348048	0.043121023281
0	2935	28.907736371329	0.03479962317
0	2941	28.942535994499	0.036619571424
0	2946	28.979155565923	0.065776599619
0	2951	29.044932165542	0.045193337953
0	2957	29.090125503495	0.172536483644
0	2963	29.262661987139	0.009144193734
0	2968	29.271806180873	0.032222225575
0	2973	29.304028406448	0.007154326352
0	2976	29.3111827328	0.039265998146
0	2984	29.350448730946	0.014030025781
0	2989	29.364478756727	0.186352148294
0	2996	29.550830905021	0.068426864961
0	3002	29.619257769982	0.127588188572
0	3008	29.746845958554	0.02708998346
0	3014	29.773935942014	0.044943919846
0	3019	29.81887986186	0.059573563425
0	3025	29.878453425285	0.103733109345
0	3030	29.98218653463	0.039657381603
0	3035	30.021843916233	0.001697375572
0	3037	30.023541291805	0.024631138466
0	3045	30.048172430271	0.009585324767
0	3050	30.057757755038	0.027690477994
0	3056	30.085448233032	0.037402294746
0	3061	30.122850527778	0.07210431296
0	3066	30.194954840738	0.059949968385
0	3072	30.254904809123	0.021988793679
0	3077	30.276893602802	0.025410735718
0	3082	30.30230433852	0.022943086298
0	3087	30.325247424818	0.027909289187
0	3092	30.353156714005	0.081970213791
0	3097	30.435126927796	0.002580438864
0	3099	30.43770736666	0.038320034356
0	3107	30.476027401016	0.00830696247
0	3112	30.484334363486	0.060321683764
0	3117	30.54465604725	0.008925384427
0	3122	30.553581431677	0.009627959354
0	3127	30.563209391031	0.10032714873
0	3133	30.663536539761	0.049262049101
0	3138	30.712798588862	0.035374413881
0	3143	30.748173002743	0.10156973355
0	3149	30.849742736293	0.00158405481
0	3151	30.851326791103	0.026051586083
0	3159	30.877378377186	0.046190166288
0	3164	30.923568543474	0.007918528249
0	3166	30.931487071723	0.145087025921
0	3176	31.076574097644	0.01501354742
0	3181	31.091587645064	0.044419543205
0	3186	31.136007188269	0.057515634154
0	3192	31.193522822423	0.045115448015
0	3197	31.238638270438	0.046989317944
0	3202	31.285627588382	0.026493219592
0	3207	31.312120807974	0.011608788672
0	3212	31.323729596646	0.043789677198
0	3217	31.367519273844	0.039584714219
0	3222	31.407103988063	0.009866292094
0	3227	31.416970280157	0.035498446634
0	3232	31.452468726791	0.049101554928
0	3238	31.501570281719	0.007468588589
0	3240	31.509038870308	0.059350866048
0	3248	31.568389736356	0.068764148397
0	3253	31.637153884753	0.052568854431
0	3259	31.689722739184	0.012351013942
0	3264	31.702073753126	0.071044395188
0	3269	31.773118148314	0.057100144371
0	3274	31.830218292685	0.051551368385
0	3279	31.88176966107	0.033712050549
0	3284	31.915481711619	0.032849867274
0	3289	31.948331578893	0.081619606439
0	3294	32.029951185332	0.034941016361
0	3299	32.064892201693	0.071211892192
0	3304	32.136104093885	0.035913121145
0	3309	32.17201721503	0.053033779749
0	3315	32.225050994779	2.1282421e-05
0	3317	32.2250722772	0.180398780592
0	3325	32.405471057792	0.057495169088
0	3331	32.46296622688	0.004900212076
0	3333	32.467866438956	0.074843691808
0	3341	32.542710130764	0.085239272146
0	3346	32.62794940291	0.098184410095
0	3352	32.726133813005	0.158461928416
0	3358	32.884595741421	0.167121836918
0	3363	33.051717578339	0.021045596208
0	3368	33.072763174547	0.087075787182
0	3375	33.159838961729	0.032938837124
0	3380	33.192777798853	0.067307248922
0	3386	33.260085047775	0.067334550244
0	3391	33.327419598019	0.122904047537
0	3398	33.450323645556	0.005834964761
0	3400	33.456158610317	0.026693137142
0	3408	33.482851747459	0.000322166104
0	3410	33.483173913563	0.080199121443
0	3420	33.563373035006	0.047798111223
0	3425	33.611171146229	0.115856626282
0	3431	33.727027772511	0.017976468182
0	3436	33.745004240693	0.095533449183
0	3441	33.840537689876	0.060431079985
0	3446	33.900968769861	0.028245705454
0	3451	33.929214475315	0.087567327982
0	3456	34.016781803297	0.059210860632
0	3461	34.075992663929	0.021770970352
0	3466	34.097763634281	0.027385101837
0	3471	34.125148736118	0.072458341895
0	3477	34.197607078013	0.009413680577
0	3482	34.20702075859	0.104935044188
0	3487	34.311955802778	0.009971583311
0	3492	34.321927386089	0.026459813789
0	3497	34.348387199878	0.100754467956
0	3503	34.449141667834	0.12636819664
0	3508	34.575509864474	0.009139671119
0	3513	34.584649535593	0.006233422344
0	3515	34.590882957937	0.090761919638
0	3525	34.681644877575	0.024349551821
0	3530	34.705994429396	0.017836589661
0	3536	34.723831019057	0.018653862333
0	3541	34.74248488139	0.004653447313
0	3543	34.747138328703	0.050071601577
0	3551	34.79720993028	0.002697176872
0	3553	34.799907107152	0.011640384395
0	3558	34.811547491547	0.091555796777
0	3567	34.903103288324	0.004522935067
0	3569	34.907626223391	0.075616285206
0	3578	34.983242508597	0.091516869841
0	3584	35.074759378438	0.004107703197
0	3586	35.078867081635	0.058568215187
0	3594	35.137435296822	0.000539146377
0	3596	35.137974443199	0.023319701867
0	3604	35.161294145066	0.013036670471
0	3609	35.174330815537	0.249976604745
0	3615	35.424307420282	0.018681880341
0	3620	35.442989300623	0.076375823272
0	3625	35.519365123895	0.011715275448
0	3630	35.531080399343	0.023935510589
0	3636	35.555015909932	0.017664224415
0	3641	35.572680134347	0.006758285153
0	3643	35.5794384195	0.030857429631
0	3651	35.610295849131	0.066878257458
0	3656	35.677174106589	0.046024627394
0	3663	35.723198733983	0.044853136902
0	3668	35.768051870885	0.000524866615
0	3670	35.7685767375	0.013049583198
0	3675	35.781626320698	0.028105268635
0	3683	35.809731589333	0.007856114518
0	3688	35.817587703851	0.040644177902
0	3693	35.858231881753	0.05108840119
0	3699	35.909320282943	0.118804703953
0	3705	36.028124986896	0.052341515298
0	3711	36.080466502194	0.015672829457
0	3716	36.096139331651	0.111532642694
0	3721	36.207671974345	0.098307362589
0	3726	36.305979336934	0.006243744341
0	3728	36.312223081275	0.037598248078
0	3736	36.349821329353	0.003264351163
0	3738	36.353085680516	0.006566755624
0	3743	36.35965243614	0.018886515547
0	3751	36.378538951687	0.073183596032
0	3758	36.451722547719	0.016013710742
0	3763	36.467736258461	0.165861569581
0	3769	36.633597828042	0.013975216038
0	3774	36.64757304408	0.060524018068
0	3782	36.708097062148	0.00475090658
0	3784	36.712847968728	0.096486471704
0	3795	36.809334440432	0.006950536032
0	3797	36.816284976464	0.050466790439
0	3806	36.866751766903	0.023659909573
0	3811	36.890411676476	0.033486170509
0	3817	36.923897846985	0.081848687995
0	3823	37.00574653498	0.073349700755
0	3828	37.079096235735	0.021492470356
0	3833	37.100588706091	0.042907844597
0	3838	37.143496550688	0.024281046522
0	3843	37.16777759721	0.113870114533
0	3849	37.281647711743	0.051262715309
0	3854	37.332910427052	0.024752670254
0	3859	37.357663097306	0.017843016615
0	3864	37.375506113921	0.028764827817
0	3870	37.404270941738	0.001077253784
0	3872	37.405348195522	0.013242902721
0	3877	37.418591098243	0.254296051428
0	3887	37.672887149671	0.019206965444
0	3892	37.692094115115	0.179222723518
0	3900	37.871316838633	0.018311927169
0	3905	37.889628765802	0.030443949991
0	3910	37.920072715793	0.000422104389
0	3912	37.920494820182	0.093954261087
0	3920	38.014449081269	0.035263056961
0	3926	38.04971213823	0.017443833499
0	3931	38.067155971729	0.023889888664
0	3936	38.091045860393	0.105612696756
0	3941	38.196658557149	0.065297509354
0	3948	38.261956066503	0.021043292492
0	3953	38.282999358995	0.093876935201
0	3958	38.376876294196	0.023138356912
0	3964	38.400014651108	0.022844774053
0	3970	38.422859425161	0.011627191176
0	3975	38.434486616337	0.016977974477
0	3980	38.451464590814	0.002491282722
0	3982	38.453955873536	0.029274365651
0	3991	38.483230239187	0.012477390583
0	3996	38.49570762977	0.013590909338
0	4001	38.509298539108	0.02192809948
0	4006	38.531226638588	0.003331422877
0	4008	38.534558061465	0.022893360912
0	4016	38.557451422377	0.12791228564
0	4023	38.685363708017	0.003578876671
0	4025	38.688942584688	0.159253254269
0	4034	38.848195838957	0.044711002504
0	4039	38.892906841461	0.087296746559
0	4044	38.98020358802	0.089132548638
0	4049	39.069336136658	0.193282609205
0	4055	39.262618745863	0.019987101113
0	4060	39.282605846976	0.124466515848
0	4067	39.407072362824	0.031709941224
0	4072	39.438782304048	0.015517414553
0	4077	39.454299718601	0.00899326601
0	4082	39.463292984611	0.004557656192
0	4084	39.467850640803	0.098508635562
0	4092	39.566359276365	0.081828892067
0	4099	39.648188168432	0.028427167786
0	4104	39.676615336218	0.023222238956
0	4110	39.699837575174	0.010089116594
0	4115	39.709926691768	0.025675981976
0	4120	39.735602673744	0.03804124362
0	4125	39.773643917364	0.223060831611
0	4133	39.996704748975	0.049709180588
0	4140	40.046413929563	0.064538997539
0	4145	40.110952927102	0.206983981854
0	4152	40.317936908956	0.035859187618
0	4157	40.353796096574	0.04403165947
0	4162	40.397827756044	0.114317946081
0	4168	40.512145702125	0.192652735213
0	4174	40.704798437338	0.10834689912
0	4180	40.813145336458	0.010333356093
0	4185	40.823478692551	0.124160292814
0	4190	40.947638985365	0.129646276692
0	4196	41.077285262057	0.031678487388
0	4201	41.108963749445	0.108029010337
0	4207	41.216992759782	0.073853972296
0	4212	41.290846732078	0.055898327076
0	4217	41.346745059154	0.021298913423
0	4222	41.368043972577	0.023699919011
0	4227	41.391743891588	0.012976633267
0	4233	41.404720524855	0.112714090717
0	4240	41.517434615572	0.041156698037
0	4245	41.558591313609	0.022412972816
0	4250	41.581004286425	0.098923369647
0	4255	41.679927656072	0.146997374734
0	4262	41.826925030806	0.125187760644
0	4268	41.95211279145	0.013438121618
0	4273	41.965550913068	0.009556265255
0	4278	41.975107178323	0.088887508514
0	4284	42.063994686837	0.170186044665
0	4291	42.234180731502	0.025554423714
0	4297	42.259735155216	0.021711269265
0	4302	42.281446424481	0.031363534792
0	4307	42.312809959273	0.057301113629
0	4313	42.370111072902	0.057858883228
0	4318	42.42796995613	0.069543192107
0	4323	42.497513148237	0.008601752369
0	4328	42.506114900606	0.014130899844
0	4333	42.52024580045	0.011072234267
0	4338	42.531318034717	0.048330962764
0	4343	42.579648997481	0.040455947382
0	4348	42.620104944863	0.099030729515
0	4353	42.719135674378	0.145943665612
0	4359	42.86507933999	0.034299618552
0	4365	42.899378958542	0.01049962464
0	4370	42.909878583182	0.25626573947
0	4377	43.166144322652	0.135789118601
0	4382	43.301933441253	0.010361201952
0	4387	43.312294643205	0.004129828569
0	4389	43.316424471774	0.104675864758
0	4398	43.421100336532	0.118176890896
0	4403	43.539277227428	0.068916385918
0	4408	43.608193613346	0.143072906348
0	4414	43.751266519694	0.026779636801
0	4419	43.778046156495	0.001461430375
0	4421	43.77950758687	0.069261235204
0	4430	43.848768822074	0.010203729975
0	4436	43.858972552049	0.036083064617
0	4441	43.895055616666	0.028315367729
0	4447	43.923370984395	0.042418381673
0	4452	43.965789366068	0.008816725407
0	4457	43.974606091475	0.048559853487
0	4462	44.023165944962	0.113150775944
0	4468	44.136316720906	0.014639049392
0	4473	44.150955770298	0.04726346308
0	4478	44.198219233378	0.07239673007
0	4484	44.270615963448	0.080573424738
0	4492	44.351189388186	0.010038421096
0	4497	44.361227809282	0.032834302976
0	4503	44.394062112258	0.01175429539
0	4508	44.405816407648	0.022909999736
0	4513	44.428726407384	0.09726374623
0	4518	44.525990153614	0.054733965399
0	4523	44.580724119013	0.021110544168
0	4529	44.601834663181	0.225833259798
0	4537	44.827667922979	0.060212623489
0	4543	44.887880546468	0.0155704293
0	4549	44.903450975768	0.015196752679
0	4554	44.918647728447	0.071701800149
0	4560	44.990349528596	0.050116958846
0	4566	45.040466487442	0.090913318406
0	4571	45.131379805848	0.066460699378
0	4577	45.197840505226	0.0695870249
0	4582	45.267427530126	0.008526037183
0	4587	45.275953567309	0.054370003486
0	4593	45.330323570795	0.112873937465
0	4598	45.44319750826	0.115854277378
0	4604	45.559051785638	0.02782791911
0	4610	45.586879704748	0.009109248401
0	4616	45.595988953149	0.038535638553
0	4621	45.634524591702	0.011673938618
0	4626	45.64619853032	0.122060391324
0	4631	45.768258921644	0.034510423171
0	4636	45.802769344815	0.05417776039
0	4641	45.856947105205	0.12297960089
0	4646	45.979926706095	0.052089419941
0	4652	46.032016126036	0.018673054141
0	4657	46.050689180177	0.000922943208
0	4659	46.051612123385	0.058761398184
0	4667	46.110373521569	0.087541636222
0	4672	46.197915157791	0.141731772948
0	4677	46.339646930739	0.084557075905
0	4683	46.424204006644	0.033373714712
0	4688	46.457577721356	0.137398014859
0	4694	46.594975736215	0.007969451849
0	4696	46.602945188064	0.001273494075
0	4701	46.604218682139	0.091129503429
0	4711	46.695348185568	0.023280041316
0	4716	46.718628226884	0.001537239241
0	4718	46.720165466125	0.198060245684
0	4727	46.918225711809	0.004887530913
0	4729	46.923113242722	0.089806768459
0	4737	47.012920011181	0.026750696793
0	4742	47.039670707974	0.038821815853
0	4747	47.078492523827	0.093513862889
0	4752	47.172006386716	0.028793039842
0	4757	47.200799426558	0.09771784498
0	4762	47.298517271538	0.004688442097
0	4764	47.303205713635	0.032204647194
0	4772	47.335410360829	0.034389034293
0	4778	47.369799395122	0.279842200445
0	4783	47.649641595567	0.104446779893
0	4791	47.75408837546	0.033388605669
0	4797	47.787476981129	0.005520249077
0	4799	47.792997230206	0.028310154331
0	4807	47.821307384537	0.040972862296
0	4812	47.862280246833	0.00783342289
0	4814	47.870113669723	0.065065086749
0	4823	47.935178756472	0.016219886829
0	4829	47.951398643301	0.007523486353
0	4831	47.958922129654	0.077054145129
0	4839	48.035976274783	0.029862224022
0	4844	48.065838498805	0.055795549534
0	4849	48.121634048339	0.023236097321
0	4854	48.14487014566	0.025238651958
0	4859	48.170108797618	0.079344033836
0	4864	48.249452831454	0.09493001276
0	4870	48.344382844214	0.097493390682
0	4875	48.441876234896	0.092343346092
0	4883	48.534219580988	0.103321591669
0	4888	48.637541172657	0.018394332618
0	4893	48.655935505275	0.059243688451
0	4898	48.715179193726	0.127437383964
0	4903	48.84261657769	0.025680590021
0	4909	48.868297167711	0.003251458082
0	4911	48.871548625793	0.025706551281
0	4921	48.897255177074	0.015508376486
0	4926	48.91276355356	0.008861181431
0	4931	48.921624734991	0.002763041241
0	4933	48.924387776232	0.028581901093
0	4941	48.952969677325	0.01552307777
0	4946	48.968492755095	0.033171574618
0	4951	49.001664329713	0.083290373225
0	4957	49.084954702938	0.015190646566
0	4962	49.100145349504	0.032701799666
0	4967	49.13284714917	0.092326622653
0	4973	49.225173771823	0.035307828123
0	4978	49.260481599946	0.069048519728
0	4983	49.329530119674	0.034733739759
0	4988	49.364263859433	0.002071700429
0	4990	49.366335559862	0.075259845014
0	5001	49.441595404876	0.052274575887
0	5006	49.493869980763	0.000675132525
0	5008	49.494545113288	0.030961978718
0	5017	49.525507092006	0.078597358485
0	5023	49.604104450491	0.064642836357
0	5028	49.668747286848	0.036724731088
0	5033	49.705472017936	0.009734162774
0	5038	49.71520618071	0.010233752125
0	5043	49.725439932835	0.009025140345
0	5048	49.73446507318	0.029730328073
0	5053	49.764195401253	0.001404701108
0	5055	49.765600102361	0.067959462751
0	5065	49.833559565112	0.020683427101
0	5070	49.854242992213	0.213423838524
0	5075	50.067666830737	0.007086304584
0	5077	50.074753135321	0.011085312054
0	5085	50.085838447375	0.06794289613
0	5090	50.153781343505	0.117669116696
0	5097	50.271450460201	0.010564629298
0	5102	50.282015089499	0.053850951166
0	5107	50.335866040665	0.122651479603
0	5112	50.458517520268	0.069323807193
0	5117	50.527841327461	0.0846535287
0	5123	50.612494856161	0.041542172081
0	5128	50.654037028242	0.056763330752
0	5133	50.710800358994	0.028483731158
0	5139	50.739284090152	0.124328940638
0	5145	50.86361303079	0.037733002971
0	5150	50.901346033761	0.00675566619
0	5153	50.908101699951	0.044751879258
0	5161	50.952853579209	1.0224231e-05
0	5163	50.95286380344	0.025214209952
0	5171	50.978078013392	0.175692396043
0	5178	51.153770409435	0.017846719695
0	5183	51.17161712913	0.046866866555
0	5188	51.218483995685	0.111577978095
0	5193	51.33006197378	0.117453279124
0	5200	51.447515252904	8.0543588e-05
0	5202	51.447595796492	0.059258140311
0	5210	51.506853936803	0.013222225767
0	5215	51.52007616257	0.033353757178
0	5220	51.553429919748	0.024405193662
0	5225	51.57783511341	0.104844952615
0	5233	51.682680066025	0.083840500237
0	5240	51.766520566262	0.202019754691
0	5247	51.968540320953	0.005602018368
0	5249	51.974142339321	0.059894111307
0	5257	52.034036450628	0.11360686664
0	5264	52.147643317268	0.03836927255
0	5270	52.186012589818	0.010454223669
0	5275	52.196466813487	0.030527382224
0	5280	52.226994195711	0.048352067868
0	5285	52.275346263579	0.041244826644
0	5290	52.316591090223	0.017533055514
0	5295	52.334124145737	0.046852503383
0	5300	52.38097664912	0.044100844059
0	5305	52.425077493179	0.076896977605
0	5310	52.501974470784	0.043195024107
0	5316	52.545169494891	0.081505942354
0	5323	52.626675437245	0.005181270801
0	5325	52.631856708046	0.018785306594
0	5334	52.65064201464	0.046017940057
0	5339	52.696659954697	0.05822474528
0	5345	52.754884699977	0.011131045166
0	5350	52.766015745143	0.077837563101
0	5355	52.843853308244	0.011470435158
0	5360	52.855323743402	0.003948176079
0	5362	52.859271919481	0.00262049043
0	5364	52.861892409911	0.27364184445
0	5378	53.135534254361	0.039226904597
0	5383	53.174761158958	0.043190078821
0	5388	53.217951237779	0.004217564511
0	5390	53.22216880229	0.092982276059
0	5399	53.315151078349	0.066248748344
0	5405	53.381399826693	0.056332776982
0	5410	53.437732603675	0.007784501641
0	5412	53.445517105316	0.037478605038
0	5421	53.482995710354	0.004279544635
0	5423	53.487275254989	0.225257858844
0	5431	53.712533113833	0.080222785404
0	5436	53.792755899237	0.000960207617
0	5438	53.793716106854	0.066409037032
0	5446	53.860125143886	0.014333279963
0	5451	53.874458423849	0.019037895674
0	5456	53.893496319523	0.081986530919
0	5462	53.975482850442	0.031969828241
0	5468	54.007452678683	0.031012757661
0	5473	54.038465436344	0.006685806916
0	5475	54.04515124326	0.018835206726
0	5483	54.063986449986	0.053530704348
0	5488	54.117517154334	0.001778496868
0	5490	54.119295651202	0.09163246196
0	5499	54.210928113162	0.007172227645
0	5501	54.218100340807	0.012636774785
0	5509	54.230737115592	0.021328942391
0	5514	54.252066057983	0.087814326312
0	5519	54.339880384295	0.013021992144
0	5524	54.352902376439	0.046200608584
0	5530	54.399102985023	0.02237597977
0	5535	54.421478964793	7.5372512e-05
0	5537	54.421554337305	0.121562767835
0	5546	54.54311710514	0.083830618304
0	5552	54.626947723444	0.025817000004
0	5557	54.652764723448	0.01440563196
0	5562	54.667170355408	0.001279860011
0	5564	54.668450215419	0.029180482618
0	5572	54.697630698037	0.040025267373
0	5577	54.73765596541	0.055529399609
0	5583	54.793185365019	0.040794504359
0	5591	54.833979869378	0.073776673264
0	5596	54.907756542642	0.016809772088
0	5601	54.92456631473	0.025547030313
0	5606	54.950113345043	0.126505697959
0	5612	55.076619043002	0.045040189765
0	5617	55.121659232767	0.01110121343
0	5622	55.132760446197	0.016395763389
0	5627	55.149156209586	0.056069708572
0	5633	55.205225918158	0.033721883702
0	5638	55.23894780186	0.035181530761
0	5643	55.274129332621	0.114133095525
0	5649	55.388262428146	0.008062001831
0	5654	55.396324429977	0.020377838837
0	5660	55.416702268814	0.015276692443
0	5665	55.431978961257	0.088244970509
0	5671	55.520223931766	0.006265504341
0	5673	55.526489436107	0.029452179881
0	5681	55.555941615988	0.065320821057
0	5686	55.621262437045	0.051619605267
0	5692	55.672882042312	0.143122785039
0	5697	55.816004827351	0.057806023472
0	5702	55.873810850823	0.011169836363
0	5707	55.884980687186	0.010325582271
0	5712	55.895306269457	0.065974789866
0	5717	55.961281059323	0.00011730786
0	5719	55.961398367183	0.183446667954
0	5727	56.144845035137	0.13629313918
0	5732	56.281138174317	0.048243463899
0	5737	56.329381638216	0.147056084876
0	5742	56.476437723092	0.038505228733
0	5747	56.514942951825	0.037230336703
0	5752	56.552173288528	0.123304217114
0	5758	56.675477505642	0.10453157538
0	5763	56.780009081022	0.0255503918
0	5768	56.805559472822	0.036925487832
0	5773	56.842484960654	0.030114024828
0	5778	56.872598985482	0.023204509066
0	5783	56.895803494548	0.015162938256
0	5788	56.910966432804	0.014747231589
0	5793	56.925713664393	0.028955931708
0	5798	56.954669596101	0.001557774217
0	5800	56.956227370318	0.260298952575
0	5811	57.216526322893	0.021058408382
0	5816	57.237584731275	0.017036845045
0	5821	57.25462157632	0.009213462236
0	5826	57.263835038556	0.020736460803
0	5831	57.284571499359	0.006165933856
0	5833	57.290737433215	0.002227840222
0	5839	57.292965273437	0.162993822146
0	5848	57.455959095583	0.037948812075
0	5853	57.493907907658	0.037900156223
0	5858	57.531808063881	0.007682494325
0	5863	57.539490558206	0.037187472582
0	5868	57.576678030788	0.010131604244
0	5873	57.586809635032	0.034233065537
0	5878	57.621042700569	0.044508324931
0	5883	57.6655510255	0.095483291609
0	5890	57.761034317109	0.001404140644
0	5892	57.762438457753	0.176686942724
0	5900	57.939125400477	0.004777165003
0	5902	57.94390256548	0.03350096159
0	5911	57.97740352707	0.008113667969
0	5916	57.985517195039	0.090737957349
0	5922	58.076255152388	0.013604578204
0	5927	58.089859730592	0.096864308222
0	5933	58.186724038814	0.030842617888
0	5938	58.217566656702	0.004346215436
0	5940	58.221912872138	0.026510040074
0	5948	58.248422912212	0.02346402482
0	5953	58.271886937032	0.002096739934
0	5955	58.273983676966	0.234701961621
0	5967	58.508685638587	0.056948717517
0	5972	58.565634356104	0.012576358928
0	5977	58.578210715032	0.01276229781
0	5983	58.590973012842	0.04568683662
0	5988	58.636659849462	0.046776266714
0	5993	58.683436116176	0.000213499261
0	5995	58.683649615437	0.011327758988
0	6000	58.694977374425	0.050969540875
0	6010	58.7459469153	0.01987366532
0	6015	58.76582058062	0.11510414058
0	6020	58.8809247212	0.012053750331
0	6025	58.892978471531	0.01645307451
0	6030	58.909431546041	0.013679778724
0	6035	58.923111324765	0.120605451233
0	6044	59.043716775998	0.238919604122
0	6051	59.28263638012	0.015711245131
0	6056	59.298347625251	0.035758746681
0	6062	59.334106371932	0.004636588288
0	6064	59.33874296022	0.004874566363
0	6069	59.343617526583	0.035429508924
0	6077	59.379047035507	0.055797032567
0	6082	59.434844068074	0.05722188839
0	6088	59.492065956464	0.00506096052
0	6090	59.497126916984	0.081376285368
0	6099	59.578503202352	0.046468070994
0	6104	59.624971273346	0.125705330005
0	6110	59.750676603351	0.091619788862
0	6115	59.842296392213	0.021283496063
0	6120	59.863579888276	0.034058174618
0	6125	59.897638062894	0.059382511283
0	6130	59.957020574177	0.231938390002
0	6135	60.188958964179	0.064219632615
0	6140	60.253178596794	0.020653757415
0	6146	60.273832354209	0.066762823355
0	6152	60.340595177564	0.116806593679
0	6157	60.457401771243	0.035640763365
0	6163	60.493042534608	0.003352051463
0	6165	60.496394586071	0.002882037308
0	6167	60.499276623379	0.04197649817
0	6178	60.541253121549	0.050351695274
0	6183	60.591604816823	0.078870034202
0	6190	60.670474851025	0.052452611743
0	6196	60.722927462768	0.044511480107
0	6201	60.767438942875	0.021599842543
0	6206	60.789038785418	0.009954630497
0	6211	60.798993415915	0.060539710586
0	6216	60.859533126501	0.043541516664
0	6221	60.903074643165	0.176679873505
0	6226	61.07975451667	0.056372048823
0	6231	61.136126565493	0.015421292366
0	6236	61.151547857859	0.001432744677
0	6238	61.152980602536	0.084222664117
0	6246	61.237203266653	0.099665157664
0	6251	61.336868424317	0.044311630667
0	6257	61.381180054984	0.052099833575
0	6262	61.433279888559	0.013111242159
0	6267	61.446391130718	0.143356522268
0	6273	61.589747652986	0.02162897138
0	6278	61.611376624366	0.008943106691
0	6283	61.620319731057	0.140852636521
0	6289	61.761172367578	0.029077977105
0	6294	61.790250344683	0.000878651993
0	6296	61.791128996676	0.007235005074
0	6301	61.79836400175	0.025063316048
0	6309	61.823427317798	0.023429873186
0	6314	61.846857190984	0.03883674193
0	6319	61.885693932914	0.004498254619
0	6321	61.890192187533	0.10991055192
0	6330	62.000102739453	0.125906523787
0	6337	62.12600926324	0.092495600337
0	6343	62.218504863577	0.090066043217
0	6348	62.308570906794	0.015850634818
0	6353	62.324421541612	0.060318408197
0	6358	62.384739949809	0.026365051533
0	6363	62.411105001342	0.104169174999
0	6369	62.515274176341	0.01336872566
0	6374	62.528642902001	0.318484261213
0	6382	62.847127163214	0.013424464738
0	6387	62.860551627952	0.179751857362
0	6393	63.040303485314	0.024241780857
0	6398	63.064545266171	0.138698490867
0	6404	63.203243757038	0.031794776052
0	6409	63.23503853309	0.005304461211
0	6411	63.240342994301	0.061141828592
0	6419	63.301484822893	0.023012129041
0	6425	63.324496951934	0.064667696206
0	6430	63.38916464814	0.026151436298
0	6435	63.415316084438	0.001932485243
0	6437	63.417248569681	0.00490532718
0	6439	63.422153896861	0.02843732973
0	6450	63.450591226591	0.046073255199
0	6455	63.49666448179	0.046509478163
0	6461	63.543173959953	0.133311390162
0	6468	63.676485350115	0.152817435858
0	6474	63.829302785973	0.033129909969
0	6479	63.862432695942	0.193612016469
0	6487	64.056044712411	0.027781130855
0	6492	64.083825843266	0.058363837063
0	6497	64.142189680329	0.013557364063
0	6502	64.155747044392	0.016873398316
0	6507	64.172620442708	0.140115616308
0	6514	64.312736059016	0.024246766087
0	6519	64.336982825103	0.035562030995
0	6524	64.372544856098	0.0647069258
0	6529	64.437251781898	0.062639859765
0	6534	64.499891641663	0.020931786005
0	6539	64.520823427668	0.005552420552
0	6541	64.52637584822	0.017733781577
0	6549	64.544109629797	0.086707742797
0	6555	64.630817372594	0.014560419397
0	6560	64.645377791991	0.11911749576
0	6567	64.764495287751	0.014542541899
0	6572	64.77903782965	0.073971884961
0	6579	64.853009714611	0.020612513671
0	6584	64.873622228282	0.022458842853
0	6589	64.896081071135	0.06125451089
0	6595	64.957335582025	0.029134823162
0	6600	64.986470405187	0.043277275798
0	6605	65.029747680985	0.023157569876
0	6611	65.052905250861	0.002991455863
0	6613	65.055896706724	0.039348166021
0	6621	65.095244872745	0.032788940403
0	6626	65.128033813148	0.015125891007
0	6631	65.143159704155	0.098880543543
0	6637	65.242040247698	0.120298519648
0	6642	65.362338767346	0.006104175888
0	6644	65.368442943234	0.013951320903
0	6652	65.382394264137	0.001616721485
0	6654	65.384010985622	0.03267897181
0	6663	65.416689957432	0.015401261647
0	6668	65.432091219079	0.008115713268
0	6670	65.440206932347	0.101813291472
0	6679	65.542020223819	0.037573186827
0	6685	65.579593410646	0.097435209554
0	6692	65.6770286202	0.020120836416
0	6697	65.697149456616	0.010247928922
0	6702	65.707397385538	0.017656678247
0	6707	65.725054063785	0.053054907587
0	6712	65.778108971372	0.007635302443
0	6714	65.785744273815	0.086540520947
0	6722	65.872284794762	0.019458188806
0	6727	65.891742983568	0.061671003383
0	6732	65.953413986951	0.110089038328
0	6737	66.063503025279	0.029178329564
0	6742	66.092681354843	0.028994761372
0	6747	66.121676116215	0.190312011103
0	6754	66.311988127318	0.007416879785
0	6756	66.319405007103	0.01137622185
0	6764	66.330781228953	0.058506520884
0	6770	66.389287749837	0.082264721047
0	6775	66.471552470884	0.000874193489
0	6777	66.472426664373	0.123618746009
0	6785	66.596045410382	0.182006136258
0	6790	66.77805154664	0.050948599164
0	6795	66.829000145804	0.106203727692
0	6801	66.935203873496	0.001277183096
0	6803	66.936481056592	0.15899871781
0	6812	67.095479774402	0.172932376929
0	6819	67.268412151331	0.016298770617
0	6824	67.284710921948	0.013221662857
0	6829	67.297932584805	0.081868866944
0	6835	67.379801451749	0.101217292391
0	6840	67.48101874414	0.003761240467
0	6842	67.484779984607	0.028920844036
0	6850	67.513700828643	0.23370398633
0	6856	67.747404814973	0.011908851993
0	6861	67.759313666966	0.148040877848
0	6868	67.907354544814	0.083181227497
0	6873	67.990535772311	0.013826665908
0	6878	68.004362438219	0.075224722803
0	6883	68.079587161022	0.062505863135
0	6889	68.142093024157	0.06977015255
0	6894	68.211863176707	0.02403087615
0	6899	68.235894052857	0.015865289694
0	6904	68.251759342551	0.007005907158
0	6906	68.258765249709	0.1258214699
0	6914	68.384586719609	0.038129468092
0	6919	68.422716187701	0.022355478241
0	6924	68.445071665942	0.002577064074
0	6926	68.447648730016	0.001155229711
0	6928	68.448803959727	0.093128683591
0	6940	68.541932643318	0.039835198175
0	6945	68.581767841493	0.332395594587
0	6952	68.91416343608	0.003611289263
0	6954	68.917774725343	0.007936160708
0	6959	68.925710886051	0.075332324861
0	6968	69.001043210912	0.054464235842
0	6973	69.055507446754	0.002584639061
0	6975	69.058092085815	0.101834226323
0	6983	69.159926312138	0.085457495738
0	6989	69.245383807876	0.143860536465
0	6995	69.389244344341	0.083351209988
0	7001	69.472595554329	0.004240922952
0	7003	69.476836477281	0.026619052839
0	7012	69.50345553012	0.063192082702
0	7017	69.566647612822	0.107461395856
0	7023	69.674109008678	0.089915902903
0	7029	69.764024911581	0.113161655925
0	7035	69.877186567506	0.02450036439
0	7040	69.901686931896	0.134026389679
0	7046	70.035713321575	0.011580063276
0	7051	70.047293384851	0.022565575054
0	7056	70.069858959905	0.021855932282
0	7061	70.091714892187	0.037455870495
0	7066	70.129170762682	0.070633097655
0	7072	70.199803860337	0.048664610675
0	7078	70.248468471012	0.009275094204
0	7083	70.257743565216	0.004077040129
0	7085	70.261820605345	0.014248173623
0	7094	70.276068778968	0.003663982993
0	7096	70.279732761961	0.055918245108
0	7104	70.335651007069	0.139547384472
0	7110	70.475198391541	0.007074211654
0	7112	70.482272603195	0.058382080156
0	7121	70.540654683351	0.038814762513
0	7127	70.579469445864	0.007426681176
0	7129	70.58689612704	0.244204987795
0	7139	70.831101114835	0.153092629817
0	7145	70.984193744652	0.002717715602
0	7147	70.986911460254	0.141632877055
0	7156	71.128544337309	0.031951644163
0	7161	71.160495981472	0.229947057493
0	7167	71.390443038965	0.075954891281
0	7174	71.466397930246	0.116653811585
0	7179	71.583051741831	0.051689587093
0	7185	71.634741328924	0.008104725611
0	7190	71.642846054535	0.0950266916
0	7195	71.737872746135	0.003854967107
0	7197	71.741727713242	0.239239660248
0	7206	71.98096737349	0.171352590246
0	7212	72.152319963736	0.012691227244
0	7217	72.16501119098	0.1108312358
0	7222	72.27584242678	0.069160857883
0	7227	72.345003284663	0.039900016541
0	7233	72.384903301204	0.051294598074
0	7238	72.436197899278	0.002201778998
0	7240	72.438399678276	0.15844089751
0	7249	72.596840575786	0.036993225988
0	7254	72.633833801774	0.010242318293
0	7259	72.644076120067	0.013820193897
0	7264	72.657896313964	0.111813075648
0	7270	72.769709389612	0.019969299688
0	7276	72.7896786893	0.009730265303
0	7281	72.799408954603	0.005020269426
0	7283	72.804429224029	0.02690171749
0	7292	72.831330941519	0.01987145935
0	7297	72.851202400869	0.011995871146
0	7302	72.863198272015	0.020036907011
0	7307	72.883235179026	0.185766388996
0	7313	73.069001568022	0.102041337794
0	7320	73.171042905816	0.040511483605
0	7325	73.211554389421	0.022145925258
0	7330	73.233700314679	0.002017076771
0	7332	73.23571739145	0.040501859343
0	7340	73.276219250793	0.008579782726
0	7342	73.284799033519	0.014192526149
0	7350	73.298991559668	0.01941717727
0	7355	73.318408736938	0.06518167658
0	7360	73.383590413518	0.129346781888
0	7366	73.512937195406	0.060749848112
0	7371	73.573687043518	0.013016638077
0	7376	73.586703681595	0.012040405434
0	7381	73.598744087029	0.00374243403
0	7383	73.602486521059	0.009073697895
0	7388	73.611560218954	0.015965696535
0	7396	73.627525915489	0.085126856511
0	7402	73.712652772	0.057918604711
0	7407	73.770571376711	0.201031871094
0	7414	73.971603247805	0.009561454914
0	7419	73.981164702719	0.059376882423
0	7426	74.040541585142	0.065428160031
0	7431	74.105969745173	0.010786233367
0	7436	74.11675597854	0.103379202872
0	7442	74.220135181412	0.007039324586
0	7444	74.227174505998	0.05340041729
0	7452	74.280574923288	0.010783678082
0	7458	74.29135860137	0.02054528457
0	7463	74.31190388594	0.0139496736
0	7468	74.32585355954	0.018154932299
0	7473	74.344008491839	0.02442604778
0	7478	74.368434539619	0.050151937647
0	7483	74.418586477266	0.006082514513
0	7485	74.424668991779	0.006343221906
0	7491	74.431012213685	0.083796934735
0	7501	74.51480914842	0.105455382939
0	7506	74.620264531359	0.078847202729
0	7511	74.699111734088	0.092375539309
0	7517	74.791487273397	0.000513672554
0	7519	74.792000945951	0.028664090751
0	7527	74.820665036702	0.012976493946
0	7532	74.833641530648	0.002122986077
0	7534	74.835764516725	0.035369972502
0	7542	74.871134489227	0.061928988659
0	7547	74.933063477886	0.038953549999
0	7552	74.972017027885	0.026766798644
0	7557	74.998783826529	0.110030072069
0	7562	75.108813898598	0.038844222196
0	7567	75.147658120794	0.088658012369
0	7574	75.236316133163	0.010102288313
0	7579	75.246418421476	0.02747669391
0	7584	75.273895115386	0.015809415584
0	7589	75.28970453097	0.047965714939
0	7594	75.337670245909	0.041404992509
0	7600	75.379075238418	0.030240045653
0	7607	75.409315284071	0.001225606973
0	7609	75.410540891044	0.083611846772
0	7617	75.494152737816	0.041840525109
0	7622	75.535993262925	0.005099873878
0	7624	75.541093136803	0.084711933921
0	7634	75.625805070724	0.070855205358
0	7639	75.696660276082	0.006356505121
0	7641	75.703016781203	0.073998509219
0	7651	75.777015290422	0.050102120644
0	7657	75.827117411066	0.145110360619
0	7665	75.972227771685	0.051797205348
0	7672	76.024024977033	0.015273053792
0	7677	76.039298030825	0.115946500888
0	7682	76.155244531713	0.044179965895
0	7687	76.199424497608	0.135579464451
0	7694	76.335003962059	0.005728736028
0	7696	76.340732698087	0.020659006961
0	7704	76.361391705048	0.00756969324
0	7709	76.368961398288	0.012007450049
0	7714	76.380968848337	0.020264502193
0	7720	76.40123335053	0.027930514537
0	7726	76.429163865067	0.017957167894
0	7731	76.447121032961	0.056648386816
0	7736	76.503769419777	0.002639100755
0	7738	76.506408520532	0.022153072655
0	7747	76.528561593187	0.001971119281
0	7749	76.530532712468	0.085287520165
0	7758	76.615820232633	0.049304012227
0	7763	76.66512424486	0.098869811315
0	7768	76.763994056175	0.249293204257
0	7774	77.013287260432	0.032530830549
0	7779	77.045818090981	0.091829980311
0	7786	77.137648071292	0.042507031324
0	7791	77.180155102616	0.055787819638
0	7796	77.235942922254	0.004277052351
0	7798	77.240219974605	0.042575281427
0	7806	77.282795256032	0.016697604924
0	7811	77.299492860956	0.108436517352
0	7816	77.407929378308	0.047101483299
0	7821	77.455030861607	0.028003533319
0	7826	77.483034394926	0.006218797703
0	7828	77.489253192629	0.039494899248
0	7836	77.528748091877	0.142929621217
0	7842	77.671677713094	0.020998155861
0	7847	77.692675868955	0.019268864295
0	7852	77.71194473325	0.040481701648
0	7857	77.752426434898	0.036995707305
0	7862	77.789422142203	0.002522361548
0	7864	77.791944503751	0.026023201569
0	7872	77.81796770532	0.072171628071
0	7877	77.890139333391	0.072646787458
0	7883	77.962786120849	0.038502083316
0	7889	78.001288204165	0.059711347893
0	7894	78.060999552058	0.141774271347
0	7899	78.202773823405	0.086860076562
0	7905	78.289633899967	0.00124567634
0	7907	78.290879576307	0.008148246263
0	7912	78.29902782257	0.010981618076
0	7917	78.310009440646	0.021999713353
0	7926	78.332009153999	0.025541617525
0	7931	78.357550771524	0.028718363623
0	7936	78.386269135147	0.008386766429
0	7941	78.394655901576	0.037490052585
0	7946	78.432145954161	0.191083600894
0	7952	78.623229555055	0.058313094368
0	7959	78.681542649423	0.063161910947
0	7964	78.74470456037	0.115621951693
0	7970	78.860326512063	0.048373575169
0	7975	78.908700087232	0.039845756484
0	7980	78.948545843716	0.001660400352
0	7982	78.950206244068	0.001880976174
0	7984	78.952087220242	0.052101234408
0	7996	79.00418845465	0.005968160196
0	7998	79.010156614846	0.008715173331
0	8003	79.018871788177	0.126856398931
0	8011	79.145728187108	0.085018699834
0	8016	79.230746886942	0.081667671256
0	8021	79.312414558198	0.005230665774
0	8023	79.317645223972	0.020925560861
0	8032	79.338570784833	0.000167829532
0	8034	79.338738614365	0.014499903331
0	8039	79.353238517696	0.016180093076
0	8048	79.369418610772	0.042819504068
0	8053	79.41223811484	0.041340889503
0	8058	79.453579004343	0.06448164856
0	8064	79.518060652903	0.010083893059
0	8069	79.528144545962	0.037238282592
0	8074	79.565382828554	0.067155662178
0	8080	79.632538490732	0.052365665435
0	8085	79.684904156167	0.004891523911
0	8087	79.689795680078	0.035362372757
0	8095	79.725158052835	0.081592905903
0	8101	79.806750958738	0.063081036242
0	8106	79.86983199498	0.025437378468
0	8111	79.895269373448	0.009535258246
0	8116	79.904804631694	0.003018032585
0	8118	79.907822664279	0.095941351305
0	8127	80.003764015584	0.002285014656
0	8129	80.00604903024	0.03221567657
0	8138	80.03826470681	0.016847692904
0	8143	80.055112399714	0.155312895991
0	8149	80.210425295705	0.077081222741
0	8156	80.287506518446	0.017268071014
0	8161	80.30477458946	0.030264458681
0	8166	80.335039048141	0.014043642677
0	8171	80.349082690818	0.015771536488
0	8176	80.364854227306	0.012933921736
0	8181	80.377788149042	0.04042923603
0	8187	80.418217385072	0.062634548544
0	8193	80.480851933616	0.051090607308
0	8198	80.531942540924	0.007290209587
0	8200	80.539232750511	0.042876975571
0	8208	80.582109726082	0.025794222009
0	8213	80.607903948091	0.077437392595
0	8218	80.685341340686	0.004217779886
0	8220	80.689559120572	0.019226967977
0	8228	80.708786088549	0.090876302636
0	8234	80.799662391185	0.009718508739
0	8239	80.809380899924	0.013644287893
0	8244	80.823025187817	0.056762129611
0	8249	80.879787317428	0.111614194716
0	8255	80.991401512144	0.05138254263
0	8260	81.042784054774	0.040445974445
0	8265	81.083230029219	0.07364236261
0	8270	81.156872391829	0.082801703859
0	8279	81.239674095688	0.149218024699
0	8285	81.388892120387	0.014210392358
0	8290	81.403102512745	0.082346637685
0	8296	81.48544915043	0.06288610722
0	8302	81.54833525765	0.185031770947
0	8310	81.733367028597	0.023463186647
0	8315	81.756830215244	0.007767409138
0	8317	81.764597624382	0.03874343424
0	8325	81.803341058622	0.004428284153
0	8327	81.807769342775	0.037931524852
0	8335	81.845700867627	0.011993407757
0	8340	81.857694275384	0.113658996673
0	8345	81.971353272057	0.011899054774
0	8350	81.983252326831	0.020941823436
0	8356	82.004194150267	0.000671725074
0	8358	82.004865875341	0.044897594949
0	8367	82.04976347029	0.08635346298
0	8373	82.13611693327	0.015656241982
0	8379	82.151773175252	0.124105085038
0	8385	82.27587826029	0.033034004714
0	8391	82.308912265004	0.089510626837
0	8396	82.398422891841	0.217783921464
0	8401	82.616206813305	0.002864010722
0	8403	82.619070824027	0.002360981962
0	8405	82.621431805989	0.105431576684
0	8416	82.726863382673	0.006105712662
0	8418	82.732969095335	0.077886996319
0	8426	82.810856091654	0.016071440999
0	8431	82.826927532653	0.002643457253
0	8433	82.829570989906	0.020302869067
0	8441	82.849873858973	0.029187807825
0	8446	82.879061666798	0.0252802956
0	8452	82.904341962398	0.05084244403
0	8457	82.955184406428	0.082224268021
0	8462	83.037408674449	0.083938262429
0	8468	83.121346936878	0.069888987411
0	8476	83.191235924289	0.023916091002
0	8481	83.215152015291	0.162172995486
0	8488	83.377325010777	0.019184511023
0	8493	83.3965095218	0.009893393111
0	8498	83.406402914911	0.012631364239
0	8503	83.41903427915	0.111863901195
0	8510	83.530898180345	0.009905831067
0	8515	83.540804011412	0.02708661984
0	8520	83.567890631252	0.008437955938
0	8525	83.57632858719	0.216723027362
0	8532	83.793051614552	0.063946669425
0	8538	83.856998283977	0.004582076118
0	8541	83.861580360095	0.011475877502
0	8546	83.873056237597	0.08641335429
0	8555	83.959469591887	0.01886008506
0	8560	83.978329676947	8.5739151e-05
0	8562	83.978415416098	0.031768280274
0	8570	84.010183696372	0.165010144125
0	8578	84.175193840497	0.042840845132
0	8583	84.218034685629	0.091727177709
0	8590	84.309761863338	0.056236807801
0	8596	84.365998671139	0.005223587436
0	8598	84.371222258575	0.028837897381
0	8606	84.400060155956	0.077627030364
0	8612	84.47768718632	0.168769449163
0	8617	84.646456635483	0.083868446807
0	8623	84.73032508229	0.023612971886
0	8628	84.753938054176	0.02466384632
0	8633	84.778601900496	0.070655316307
0	8638	84.849257216803	0.059401999781
0	8643	84.908659216584	0.050605893639
0	8649	84.959265110223	0.004675882361
0	8651	84.963940992584	0.029096302533
0	8659	84.993037295117	0.003303072779
0	8661	84.996340367896	0.032280110882
0	8669	85.028620478778	0.031740421501
0	8674	85.060360900279	0.015328092661
0	8680	85.07568899294	0.011918090105
0	8685	85.087607083045	0.009676698292
0	8690	85.097283781337	0.047858791082
0	8695	85.145142572419	0.048154745806
0	8702	85.193297318225	0.024393814522
0	8707	85.217691132747	0.008253556464
0	8712	85.225944689211	0.036209808862
0	8718	85.262154498073	0.02178455727
0	8723	85.283939055343	0.02243570622
0	8728	85.306374761563	0.06011898105
0	8733	85.366493742613	0.011754937951
0	8738	85.378248680564	0.092953623782
0	8744	85.471202304346	0.11314979393
0	8750	85.584352098276	0.088410942412
0	8756	85.672763040688	0.041910437592
0	8761	85.71467347828	0.035351956309
0	8767	85.750025434589	0.036433161512
0	8772	85.786458596101	0.001050443654
0	8774	85.787509039755	0.003774956384
0	8777	85.791283996139	0.092654604846
0	8789	85.883938600985	0.003037062385
0	8791	85.88697566337	0.26820768434
0	8802	86.15518334771	0.010008702311
0	8808	86.165192050021	0.03110793835
0	8813	86.196299988371	0.054308174161
0	8818	86.250608162532	0.018950259227
0	8824	86.269558421759	0.004164750621
0	8826	86.27372317238	0.008832543993
0	8831	86.282555716373	0.049040126469
0	8840	86.331595842842	0.028615968083
0	8845	86.360211810925	0.042269710388
0	8850	86.402481521313	0.166911158969
0	8855	86.569392680282	0.076261454014
0	8860	86.645654134296	0.013442261886
0	8865	86.659096396182	0.187809201773
0	8873	86.846905597955	0.00190216415
0	8875	86.848807762105	0.067911887252
0	8885	86.916719649357	0.005988869477
0	8887	86.922708518834	0.06955683456
0	8896	86.992265353394	0.02728524787
0	8902	87.019550601264	0.115864999653
0	8909	87.135415600917	0.011312290966
0	8914	87.146727891883	0.220776419578
0	8921	87.367504311461	0.003163499166
0	8923	87.370667810627	0.045185977435
0	8931	87.415853788062	0.007801961075
0	8933	87.423655749137	0.008983551759
0	8941	87.432639300896	0.009885743411
0	8946	87.442525044307	0.021998240668
0	8951	87.464523284975	0.037950425693
0	8956	87.502473710668	0.004123503563
0	8958	87.506597214231	0.022529104519
0	8966	87.52912631875	0.031983890856
0	8971	87.561110209606	0.060488765126
0	8978	87.621598974732	0.096834496598
0	8985	87.71843347133	0.084326714852
0	8992	87.802760186182	0.009198329099
0	8997	87.811958515281	0.019992968295
0	9002	87.831951483576	0.021944688426
0	9007	87.853896172002	0.105519920008
0	9012	87.95941609201	0.006902253597
0	9014	87.966318345607	0.125915440351
0	9022	88.092233785958	0.009275279179
0	9027	88.101509065137	0.028775232415
0	9032	88.130284297552	0.024858735302
0	9037	88.155143032854	0.019139224059
0	9042	88.174282256913	0.067616628012
0	9047	88.241898884925	0.081350041534
0	9053	88.323248926459	0.058346598324
0	9058	88.381595524783	0.030290823018
0	9063	88.411886347801	0.045694589342
0	9068	88.457580937143	0.008192622202
0	9073	88.465773559345	0.018811705102
0	9078	88.484585264447	0.003201183317
0	9080	88.487786447764	0.03128650948
0	9090	88.519072957244	0.006817113559
0	9092	88.525890070803	0.068013711422
0	9101	88.593903782225	0.047914254485
0	9106	88.64181803671	0.029527347775
0	9111	88.671345384485	0.021070939913
0	9116	88.692416324398	0.188264980454
0	9122	88.880681304852	0.135329270626
0	9128	89.016010575478	0.024935208265
0	9133	89.040945783743	0.162359331763
0	9139	89.203305115506	0.039379562629
0	9146	89.242684678135	0.045153294417
0	9152	89.287837972552	0.083558456544
0	9157	89.371396429096	0.036217458676
0	9162	89.407613887772	0.039463177501
0	9169	89.447077065273	0.016720214915
0	9174	89.463797280188	0.028639807516
0	9179	89.492437087704	0.005089236932
0	9181	89.497526324636	0.057350396649
0	9190	89.554876721285	0.006056372489
0	9192	89.560933093774	0.012634716272
0	9200	89.573567810046	0.024037553519
0	9205	89.597605363565	0.066696914913
0	9210	89.664302278478	0.01108310365
0	9215	89.675385382128	0.096981463822
0	9220	89.77236684595	0.027214790696
0	9225	89.799581636646	0.04963827901
0	9230	89.849219915656	0.035095635729
0	9235	89.884315551385	0.018864299089
0	9240	89.903179850474	0.044065842328
0	9246	89.947245692802	0.026604564668
0	9251	89.97385025747	0.324806430828
0	9259	90.298656688298	0.033826602812
0	9264	90.33248329111	0.118537007421
0	9270	90.451020298531	0.012480273912
0	9275	90.463500572443	0.000576252981
0	9277	90.464076825424	0.014637467982
0	9282	90.478714293406	0.090380289207
0	9291	90.569094582613	0.013965827297
0	9297	90.58306040991	0.035523449269
0	9302	90.618583859179	0.042676242479
0	9308	90.661260101658	0.135962563029
0	9313	90.797222664687	0.0023552446
0	9315	90.799577909287	0.028565510618
0	9323	90.828143419905	0.13065183199
0	9332	90.958795251895	0.182042936051
0	9339	91.140838187946	0.03932919801
0	9345	91.180167385956	0.085573660863
0	9350	91.265741046819	0.016578306292
0	9355	91.282319353111	8.4083687e-05
0	9357	91.282403436798	0.043567334839
0	9365	91.325970771637	0.044087896787
0	9370	91.370058668424	0.071605615215
0	9375	91.441664283639	0.020025983064
0	9380	91.461690266703	0.017249871844
0	9386	91.478940138547	0.016780764914
0	9391	91.495720903461	0.005592749553
0	9393	91.501313653014	0.042564741402
0	9401	91.543878394416	0.093090530105
0	9406	91.636968924521	0.00094192189
0	9408	91.637910846411	0.007638068065
0	9410	91.645548914476	0.005082086056
0	9415	91.650631000532	0.011138298388
0	9420	91.66176929892	0.049203117673
0	9431	91.710972416593	0.1462986554
0	9436	91.857271071993	0.02921398303
0	9441	91.886485055023	0.017695030379
0	9446	91.904180085402	0.046421355495
0	9451	91.950601440897	0.072588939166
0	9456	92.023190380063	0.016127135733
0	9461	92.039317515796	0.046254680001
0	9466	92.085572195797	0.012919373657
0	9471	92.098491569454	0.043220050363
0	9477	92.141711619817	0.043703065369
0	9482	92.185414685186	0.048044106227
0	9487	92.233458791413	0.184036338633
0	9494	92.417495130046	0.036090842322
0	9499	92.453585972368	0.096382350785
0	9505	92.549968323153	0.080354354541
0	9511	92.630322677694	0.05969203829
0	9516	92.690014715984	0.092395541342
0	9523	92.782410257326	0.045842380512
0	9529	92.828252637838	0.03102420564
0	9534	92.859276843478	0.032714170492
0	9539	92.89199101397	0.050516302026
0	9544	92.942507315996	0.01243225208
0	9549	92.954939568076	0.030332307411
0	9556	92.985271875487	0.047619578943
0	9562	93.03289145443	0.05018982
0	9567	93.08308127443	0.005364015664
0	9569	93.088445290094	0.090179506225
0	9578	93.178624796319	0.042493740809
0	9585	93.221118537128	0.048431537606
0	9590	93.269550074734	0.008491604613
0	9595	93.278041679347	0.148436453382
0	9601	93.426478132729	0.042738624422
0	9606	93.469216757151	0.016630269403
0	9611	93.485847026554	0.030397879632
0	9616	93.516244906186	0.049355844077
0	9622	93.565600750263	0.082694689648
0	9627	93.648295439911	0.007145024123
0	9629	93.655440464034	0.04743308776
0	9637	93.702873551794	0.001418030379
0	9639	93.704291582173	0.020358281
0	9647	93.724649863173	0.071782693664
0	9652	93.796432556837	0.008136317767
0	9654	93.804568874604	0.045629881423
0	9662	93.850198756027	0.009098933883
0	9667	93.85929768991	0.087463470807
0	9672	93.946761160717	0.065052783008
0	9677	94.011813943725	0.037476500132
0	9682	94.049290443857	0.04275280358
0	9687	94.092043247437	0.080880460478
0	9692	94.172923707915	0.040652284722
0	9698	94.213575992637	0.040211106705
0	9703	94.253787099342	0.012488823587
0	9708	94.266275922929	0.115568372395
0	9715	94.381844295324	0.096568420253
0	9720	94.478412715577	0.031910326418
0	9726	94.510323041995	0.116814428472
0	9731	94.627137470467	0.057906488708
0	9736	94.685043959175	0.001305607395
0	9738	94.68634956657	0.084821118491
0	9748	94.771170685061	0.0333875343
0	9755	94.804558219361	0.048228711452
0	9761	94.852786930813	0.004708088059
0	9763	94.857495018872	0.11944452408
0	9771	94.976939542952	0.029319968269
0	9776	95.006259511221	0.087677093984
0	9782	95.093936605205	0.003320695555
0	9784	95.09725730076	0.049660378962
0	9792	95.146917679722	0.107275611846
0	9797	95.254193291568	0.024956718794
0	9802	95.279150010362	0.058751904378
0	9808	95.33790191474	0.062559890721
0	9814	95.400461805461	0.032305016755
0	9820	95.432766822216	0.091416165373
0	9825	95.524182987589	0.06935574805
0	9830	95.593538735639	0.141020321183
0	9835	95.734559056822	0.012527287668
0	9840	95.74708634449	0.001292273914
0	9842	95.748378618404	0.03056174979
0	9850	95.778940368194	0.079288541087
0	9855	95.858228909281	0.149623829237
0	9861	96.007852738518	0.06188723376
0	9866	96.069739972278	0.01756142887
0	9871	96.087301401148	0.149943779389
0	9877	96.237245180537	0.002961463247
0	9879	96.240206643784	0.025538151297
0	9887	96.265744795081	0.110417497838
0	9893	96.376162292919	0.107662755139
0	9898	96.483825048058	0.012139741731
0	9903	96.495964789789	0.177024286187
0	9908	96.672989075976	0.031367121633
0	9913	96.704356197609	0.164925318331
0	9920	96.86928151594	0.007365345764
0	9922	96.876646861704	0.1030026547
0	9933	96.979649516404	0.171974026557
0	9939	97.151623542961	0.096518803424
0	9944	97.248142346385	0.019879150974
0	9949	97.268021497359	0.107383374575
0	9955	97.375404871934	0.025401637718
0	9960	97.400806509652	0.027794962699
0	9965	97.428601472351	0.288030895867
0	9971	97.716632368218	0.005418477963
0	9973	97.722050846181	0.018203794348
0	9981	97.740254640529	0.001694097422
0	9983	97.741948737951	0.019645845922
0	9991	97.761594583873	0.004399342613
0	9993	97.765993926486	0.00453403658
0	9998	97.770527963066	0.023445631648
0	10006	97.793973594714	0.103130634123
0	10012	97.897104228837	0.126644911454
0	10018	98.023749140291	0.01441574164
0	10023	98.038164881931	0.003594467909
0	10025	98.04175934984	0.000545410879
0	10027	98.042304760719	0.15157664596
0	10038	98.193881406679	0.026132310646
0	10043	98.220013717325	0.021496186064
0	10049	98.241509903389	0.005484761667
0	10051	98.246994665056	0.072864151196
0	10060	98.319858816252	0.052330478526
0	10065	98.372189294778	0.091432507061
0	10070	98.463621801839	0.142617584149
0	10076	98.606239385988	0.002707569138
0	10078	98.608946955126	0.02438208177
0	10086	98.633329036896	0.037772294682
0	10091	98.671101331578	0.053739189761
0	10097	98.724840521339	0.002265119556
0	10099	98.727105640895	0.020232128594
0	10107	98.747337769489	0.061844896938
0	10113	98.809182666427	0.01045032908
0	10118	98.819632995507	0.027403031203
0	10123	98.84703602671	0.017339140468
0	10128	98.864375167178	0.026631566484
0	10133	98.891006733662	0.001593455684
0	10135	98.892600189346	0.041168422331
0	10144	98.933768611677	0.085606782923
0	10149	99.0193753946	0.03050688511
0	10154	99.04988227971	0.135238694927
0	10161	99.185120974637	0.137603918636
0	10167	99.322724893273	0.033053861133
0	10172	99.355778754406	0.00273243462
0	10174	99.358511189026	0.002686959874
0	10176	99.3611981489	0.043160082151
0	10187	99.404358231051	0.166475998018
0	10193	99.570834229069	0.052854810785
0	10198	99.623689039854	0.019626362122
0	10203	99.643315401976	0.127791840086
0	10209	99.771107242062	0.011726005166
0	10214	99.782833247228	0.016076567255
0	10220	99.798909814483	0.005708841628
0	10222	99.804618656111	0.074197738144
0	10231	99.878816394255	0.032693240786
0	10236	99.911509635041	0.025939607027
0	10241	99.937449242068	0.067593190632
0	10246	100.0050424327	0.010158186004
0	10251	100.015200618704	0.151865535329
0	10261	100.167066154033	0.023996809001
0	10266	100.191062963034	0.00559082846
0	10268	100.196653791494	0.013854397684
0	10276	100.210508189178	0.02379951817
0	10281	100.234307707348	0.006532076167
0	10283	100.240839783515	0.063343781491
0	10291	100.304183565006	0.166684281447
0	10298	100.470867846453	0.078566914824
0	10303	100.549434761277	0.032704574627
0	10308	100.582139335904	0.068797996362
0	10313	100.650937332266	0.08522077604
0	10318	100.736158108306	0.005970249126
0	10320	100.742128357432	0.069964637932
0	10328	100.812092995364	0.018537945454
0	10333	100.830630940818	0.038345275161
0	10338	100.868976215979	0.000109745063
0	10340	100.869085961042	0.032788083485
0	10348	100.901874044527	0.043690494535
0	10353	100.945564539062	0.06226748372
0	10358	101.007832022782	0.106579802482
0	10363	101.114411825264	0.005562078893
0	10365	101.119973904157	0.083426666759
0	10374	101.203400570916	0.002581757351
0	10376	101.205982328267	0.057774460166
0	10384	101.263756788433	0.031828377616
0	10389	101.295585166049	0.051220732546
0	10394	101.346805898595	0.000572069833
0	10396	101.347377968428	0.036838447588
0	10404	101.384216416016	0.261811875593
0	10413	101.646028291609	0.014417606182
0	10418	101.660445897791	0.239718299463
0	10424	101.900164197254	0.01535633112
0	10429	101.915520528374	0.070247758113
0	10435	101.985768286487	0.005766255131
0	10437	101.991534541618	0.013109199821
0	10445	102.004643741439	7.5064608e-05
0	10447	102.004718806047	0.001224630263
0	10449	102.00594343631	0.047140331456
0	10461	102.053083767766	0.106344127892
0	10467	102.159427895658	0.058577175059
0	10472	102.218005070717	0.000117487398
0	10474	102.218122558115	0.00555268735
0	10476	102.223675245465	0.037737395978
0	10487	102.261412641443	0.068838916613
0	10492	102.330251558056	0.002588563611
0	10494	102.332840121667	0.045380642976
0	10504	102.378220764643	0.031205673297
0	10510	102.40942643794	0.00920762437
0	10515	102.41863406231	0.015477534477
0	10520	102.434111596787	0.002182288449
0	10522	102.436293885236	0.043132265678
0	10530	102.479426150914	0.013126157277
0	10535	102.492552308191	0.022497494199
0	10540	102.51504980239	0.122059144218
0	10546	102.637108946608	0.02986521984
0	10551	102.666974166448	0.023076466065
0	10556	102.690050632513	0.024502812258
0	10562	102.714553444771	0.047398626407
0	10568	102.761952071178	0.022942759159
0	10573	102.784894830337	0.017107596018
0	10578	102.802002426355	0.006672925698
0	10580	102.808675352053	0.138575421022
0	10589	102.947250773075	0.015261868116
0	10594	102.962512641191	0.059917840021
0	10600	103.022430481212	0.037157968226
0	10605	103.059588449438	0.06377048198
0	10611	103.123358931418	0.086293830944
0	10618	103.209652762362	0.007672289853
0	10620	103.217325052215	0.007532320761
0	10625	103.224857372976	0.006154520232
0	10630	103.231011893208	0.012281640111
0	10635	103.243293533319	0.020901760843
0	10644	103.264195294162	0.037724833379
0	10649	103.301920127541	0.015895027779
0	10655	103.31781515532	0.007368031298
0	10657	103.325183186618	0.046185663839
0	10665	103.371368850457	0.068668652436
0	10670	103.440037502893	0.027449834507
0	10676	103.4674873374	0.003316197597
0	10678	103.470803534997	0.173336478308
0	10687	103.644140013305	0.073409821265
0	10693	103.71754983457	0.07298628055
0	10700	103.79053611512	0.001944430471
0	10702	103.792480545591	0.18695340291
0	10712	103.979433948501	0.061733782123
0	10719	104.041167730624	0.006816955976
0	10721	104.0479846866	0.049696401451
0	10730	104.097681088051	0.030830829764
0	10736	104.128511917815	0.029868261409
0	10741	104.158380179224	0.001985521491
0	10743	104.160365700715	0.062162231237
0	10751	104.222527931952	0.036530887192
0	10756	104.259058819144	0.056011647222
0	10762	104.315070466366	0.009738849447
0	10767	104.324809315813	0.010564399829
0	10772	104.335373715642	0.039600098671
0	10777	104.374973814313	0.147074666866
0	10782	104.522048481179	0.03092445268
0	10787	104.552972933859	0.053413796131
0	10792	104.60638672999	0.011130701994
0	10797	104.617517431984	0.053243500543
0	10803	104.670760932527	0.017673563824
0	10808	104.688434496351	0.065663283811
0	10814	104.754097780162	0.008197321468
0	10820	104.76229510163	0.042624972655
0	10825	104.804920074285	0.092819300174
0	10830	104.897739374459	0.164563207019
0	10835	105.062302581478	0.13637016327
0	10840	105.198672744748	0.043947904549
0	10846	105.242620649297	0.17593483019
0	10853	105.418555479487	0.01026992675
0	10858	105.428825406237	0.02803636615
0	10865	105.456861772387	0.005233977055
0	10867	105.462095749442	0.024398811995
0	10875	105.486494561437	0.006802251714
0	10877	105.493296813151	0.004115892397
0	10882	105.497412705548	0.046326180364
0	10890	105.543738885912	0.137854803945
0	10897	105.681593689857	0.001893670919
0	10899	105.683487360776	0.000228956981
0	10901	105.683716317757	0.008688865745
0	10907	105.692405183502	0.076584684874
0	10918	105.768989868376	0.007006203977
0	10920	105.775996072353	0.014449453816
0	10928	105.790445526169	0.090743522006
0	10934	105.881189048175	0.187303415498
0	10940	106.068492463673	0.021419355458
0	10946	106.089911819131	0.018555347033
0	10951	106.108467166164	0.034909775244
0	10957	106.143376941408	0.040662283855
0	10962	106.184039225263	0.008146779852
0	10964	106.192186005115	0.014011211431
0	10972	106.206197216546	0.109588403848
0	10977	106.315785620394	0.062494190748
0	10982	106.378279811142	0.034947854725
0	10987	106.413227665867	0.013999416965
0	10992	106.427227082832	0.060689656181
0	10999	106.487916739013	0.033600243417
0	11005	106.52151698243	0.074101465222
0	11010	106.595618447652	0.029377639243
0	11015	106.624996086895	0.018120885727
0	11020	106.643116972622	0.014523656894
0	11025	106.657640629516	0.023218794149
0	11030	106.680859423665	0.009865783012
0	11035	106.690725206677	0.018373842814
0	11040	106.709099049491	0.152482907335
0	11045	106.861581956826	0.133480416915
0	11054	106.995062373741	0.012187224035
0	11059	107.007249597776	0.05263038823
0	11064	107.059879986006	0.087646495908
0	11069	107.147526481914	0.105655856265
0	11076	107.253182338179	0.013612919132
0	11082	107.266795257311	0.011879864507
0	11087	107.278675121818	0.072486880558
0	11093	107.351162002376	0.005896161543
0	11095	107.357058163919	0.012011498865
0	11103	107.369069662784	0.006968841654
0	11105	107.376038504438	0.114659313768
0	11113	107.490697818206	0.070508818435
0	11119	107.561206636641	0.066113475126
0	11125	107.627320111767	0.005678921424
0	11127	107.632999033191	0.031126921108
0	11135	107.664125954299	0.247127334414
0	11140	107.911253288713	0.021320713505
0	11145	107.932574002218	0.009024369097
0	11150	107.941598371315	0.092748735964
0	11157	108.034347107279	0.047499221089
0	11162	108.081846328368	0.011052298899
0	11167	108.092898627267	0.073936440609
0	11172	108.166835067876	0.058143337715
0	11177	108.224978405591	0.013365978139
0	11182	108.23834438373	0.091133937383
0	11187	108.329478321113	0.015545225037
0	11192	108.34502354615	0.005141412676
0	11194	108.350164958826	0.216879945819
0	11204	108.567044904645	0.091373267923
0	11211	108.658418172568	0.065003806341
0	11217	108.723421978909	0.136527198969
0	11223	108.859949177878	0.003489131553
0	11225	108.863438309431	0.026258178945
0	11233	108.889696488376	0.014876078066
0	11238	108.904572566442	0.033261898635
0	11244	108.937834465077	0.018504523918
0	11249	108.956338988995	0.058794756164
0	11255	109.015133745159	0.002602421581
0	11258	109.01773616674	0.039036533953
0	11266	109.056772700693	0.027585039872
0	11272	109.084357740565	0.027508651846
0	11278	109.111866392411	0.000503716697
0	11280	109.112370109108	0.00766967024
0	11285	109.120039779348	0.008740921706
0	11290	109.128780701054	0.056254381982
0	11298	109.185035083036	0.008857991911
0	11303	109.193893074947	0.088945635343
0	11308	109.28283871029	0.074706463602
0	11315	109.357545173892	0.037937072016
0	11320	109.395482245908	0.129690854461
0	11326	109.525173100369	0.090449312259
0	11331	109.615622412628	0.026434258181
0	11336	109.642056670809	0.093073088045
0	11343	109.735129758854	0.058149096566
0	11348	109.79327885542	0.007410310679
0	11350	109.800689166099	0.011281322925
0	11358	109.811970489024	0.138086539496
0	11364	109.95005702852	0.001287083752
0	11366	109.951344112272	0.028515066811
0	11374	109.979859179083	0.03946538116
0	11381	110.019324560243	0.037046817081
0	11386	110.056371377324	0.067263756179
0	11391	110.123635133503	0.038771670062
0	11396	110.162406803565	0.040597494858
0	11402	110.203004298423	0.025384169592
0	11408	110.228388468015	0.115350196452
0	11414	110.343738664467	0.057108380258
0	11419	110.400847044725	0.002101611276
0	11421	110.402948656001	0.0208720298
0	11429	110.423820685801	0.003038566509
0	11431	110.42685925231	0.054631797223
0	11440	110.481491049533	0.008257412708
0	11445	110.489748462241	0.068962765552
0	11450	110.558711227793	0.008109186636
0	11455	110.566820414429	0.06968741492
0	11460	110.636507829349	0.008267144684
0	11465	110.644774974033	0.12133738357
0	11471	110.766112357603	0.006617919558
0	11473	110.772730277161	0.066080957778
0	11481	110.838811234939	0.035939164246
0	11487	110.874750399185	0.233208198638
0	11495	111.107958597823	0.021779440813
0	11500	111.129738038636	0.070076899282
0	11505	111.199814937918	0.009765181079
0	11511	111.209580118997	0.013788615961
0	11516	111.223368734958	0.077400771929
0	11522	111.300769506887	0.037844244863
0	11527	111.33861375175	0.041414434428
0	11532	111.380028186178	0.169794757362
0	11539	111.54982294354	0.397300798531
0	11547	111.947123742071	0.040966454578
0	11552	111.988090196649	0.119149604415
0	11557	112.107239801064	0.006236348131
0	11559	112.113476149195	0.00879396764
0	11564	112.122270116835	0.004748383751
0	11569	112.127018500586	0.014931784776
0	11577	112.141950285362	0.124989129405
0	11585	112.266939414767	0.005376436995
0	11587	112.272315851762	0.096614517076
0	11595	112.368930368838	0.068380207278
0	11600	112.437310576116	0.073096501622
0	11605	112.510407077738	0.057578153061
0	11612	112.567985230799	0.017849756404
0	11617	112.585834987203	0.098370116628
0	11624	112.684205103831	0.072609382227
0	11629	112.756814486058	0.00047521828
0	11631	112.757289704338	0.046044602556
0	11639	112.803334306894	0.050262323225
0	11645	112.853596630119	0.038883229755
0	11650	112.892479859874	0.151057061719
0	11655	113.043536921593	0.002510980062
0	11657	113.046047901655	0.018226820795
0	11665	113.06427472245	0.009873692869
0	11670	113.074148415319	0.01975942916
0	11675	113.093907844479	0.068780552294
0	11681	113.162688396773	0.000333970154
0	11683	113.163022366927	0.00882224827
0	11688	113.171844615197	0.008909548731
0	11693	113.180754163928	0.010038674375
0	11698	113.190792838303	0.030246394126
0	11706	113.221039232429	0.045398261833
0	11711	113.266437494262	0.028296341172
0	11717	113.294733835434	0.066526492121
0	11722	113.361260327555	0.004978550699
0	11724	113.366238878254	0.04186367033
0	11732	113.408102548584	0.007414873824
0	11734	113.415517422408	0.008468141354
0	11742	113.423985563762	0.195078019917
0	11749	113.619063583679	0.140475377057
0	11754	113.759538960736	0.000621077843
0	11756	113.760160038579	0.172668288722
0	11765	113.932828327301	0.011825987706
0	11770	113.944654315007	0.116857495938
0	11775	114.061511810945	0.06621652087
0	11781	114.127728331815	0.135427799949
0	11789	114.263156131764	0.101188102292
0	11796	114.364344234056	0.059247893151
0	11802	114.423592127207	0.043285271606
0	11808	114.466877398813	0.011098179194
0	11813	114.477975578007	0.047644898461
0	11818	114.525620476468	0.001081698872
0	11820	114.52670217534	0.053460743581
0	11828	114.580162918921	0.026682876799
0	11833	114.60684579572	0.099853081416
0	11840	114.706698877136	0.007623102769
0	11845	114.714321979905	0.005466959801
0	11847	114.719788939706	0.001896089035
0	11849	114.721685028741	0.035120380851
0	11860	114.756805409592	0.050311482676
0	11865	114.807116892268	0.030034452883
0	11870	114.837151345151	0.011260322425
0	11875	114.848411667576	0.028751703932
0	11880	114.877163371508	0.042940544457
0	11886	114.920103915965	0.067814988827
0	11892	114.987918904792	0.006226630403
0	11894	114.994145535195	0.060536001076
0	11903	115.054681536271	0.015867929936
0	11908	115.070549466207	0.074653577537
0	11914	115.145203043744	0.046627649723
0	11919	115.191830693467	0.000106043062
0	11921	115.191936736529	0.028579932504
[...]
19	24272	227.534843776428	1.6246166500873
19	24462	229.159460426515	0.444713951534
19	24491	229.604174378049	1.1541363937177
19	24583	230.758310771767	2.2241786480692
19	24814	232.982489419836	5.5386700882212
19	25413	238.521159508057	2.4350733165382
19	25707	240.956232824595	0.20298454031195
19	25725	241.159217364907	1.3491313752998
19	25887	242.508348740207	0.38358758636491
19	25938	242.891936326572	2.3316104492386
19	26181	245.223546775811	1.9085499857566
19	26408	247.132096761568	1.1883371151603
19	26574	248.320433876728	1.2998615087591
19	26682	249.620295385487	8.0191126659424
19	27504	257.639408051429	4.6796916825024
19	27988	262.319099733931	0.60623322518038
19	28038	262.925332959111	0.694894940078
19	28073	263.620227899189	4.6972542049202
19	28640	268.317482104109	1.9336542099
19	28822	270.251136314009	0.9794889968217
19	28915	271.230625310831	2.7133248742104
19	29160	273.943950185041	0.65149464699409
19	29222	274.595444832035	0.81560309574776
19	29260	275.411047927783	7.1858078205752
19	30097	282.596855748358	0.32230509839009
19	30133	282.919160846748	0.11057439310605
19	30144	283.029735239854	1.8752244418255
19	30327	284.904959681679	0.85433578241353
19	30412	285.759295464093	1.8005828820242
19	30588	287.559878346117	2.9521117611161
19	30883	290.511990107233	3.1102417466534
19	31192	293.622231853886	0.46387671796449
19	31258	294.08610857185	0.68218243240562
19	31335	294.768291004256	4.5705457156674
19	31852	299.338836719923	1.1114263886266
19	31958	300.45026310855	0.3328224232195
19	32003	300.783085531769	1.5828613879805
19	32193	302.36594691975	2.6751801889611
19	32520	305.041127108711	0.85955447318791
19	32640	305.900681581899	5.4843350054921
19	33307	311.385016587391	5.1360453698537
19	33859	316.521061957245	0.87575058941842
19	33994	317.396812546663	1.6078223499508
19	34139	319.004634896614	0.83497155726942
19	34241	319.839606453883	2.1084835668119
19	34507	321.948090020695	1.3147657782717
19	34648	323.262855798967	2.6509735325568
19	34987	325.913829331524	4.3120324858539
19	35523	330.225861817378	0.51574231551371
19	35547	330.741604132892	1.3508789973991
19	35710	332.092483130291	0.27772687835471
19	35757	332.370210008646	0.62224300577271
19	35830	332.992453014419	3.6945838552582
19	36232	336.687036869677	0.6063675382969
19	36291	337.293404407974	6.6581546002479
19	37081	343.951559008222	3.0895933226068
19	37465	347.041152330829	1.6572856358769
19	37611	348.698437966706	1.3820405413306
19	37753	350.080478508037	4.9108581346904
19	38290	354.991336642727	0.85338609615878
19	38351	355.844722738886	2.8895449523203
19	38624	358.734267691206	0.75498936861072
19	38679	359.489257059817	1.9322413502628
19	38882	361.42149841008	0.86136559811205
19	38962	362.282864008192	0.2129713246053
19	39014	362.495835332797	0.31175292566341
19	39049	362.80758825846	0.45288046573695
19	39077	363.260468724197	3.2647455563601
19	39405	366.525214280557	1.5478819786881
19	39567	368.073096259245	1.3716394139326
19	39702	369.444735673178	0.38024410352701
19	39739	369.824979776705	0.43709533764888
19	39794	370.262075114354	1.1515016290976
19	39873	371.413576743452	4.3043564686585
19	40356	375.717933212111	0.054414430787219
19	40366	375.772347642898	1.5232628601254
19	40513	377.295610503023	1.1482097240022
19	40630	378.443820227025	2.6512363564647
19	40945	381.09505658349	1.5806102781859
19	41094	382.675666861676	0.29159189921592
19	41118	382.967258760892	0.2858934315526
19	41173	383.253152192445	1.9440719292709
19	41322	385.197224121716	0.035924049169826
19	41328	385.233148170886	0.62418269914037
19	41384	385.857330870026	0.51226162650421
19	41441	386.36959249653	2.3268264626642
19	41698	388.696418959194	2.4158213346777
19	41929	391.112240293872	2.622911535896
19	42199	393.735151829768	0.58322987521067
19	42272	394.318381704979	1.152029385618
19	42411	395.470411090597	3.1287874443535
19	42783	398.59919853495	0.50843798524097
19	42849	399.107636520191	0.37682915817474
19	42866	399.484465678366	0.45103370676786
19	42900	399.935499385134	0.70043663494362
20	1691	16.78411370571	9.2659926052061
20	2673	26.050106310916	0.06558527639915
20	2687	26.115691587315	1.199096902707
20	2798	27.314788490022	1.7686015017521
20	2956	29.083389991774	0.022988550873153
20	2962	29.106378542647	0.46634589726162
20	3001	29.572724439909	7.1326053530403
20	3781	36.705329792949	1.1632185236656
20	3899	37.868548316615	1.5328591555013
20	4065	39.401407472116	0.1944424576521
20	4097	39.595849929768	1.4536113180039
20	4195	41.049461247772	0.34691632701348
20	4229	41.396377574785	2.8610244020034
20	4483	44.257401976788	5.1333313101765
20	4998	49.390733286964	2.1937536361965
20	5227	51.58448692316	3.7656272975904
20	5648	55.35011422075	5.3131482925941
20	6189	60.663262513344	1.4076793433743
20	6336	62.070941856718	0.11368197895879
20	6342	62.184623835677	3.4129072909118
20	6690	65.597531126589	0.012711909074929
20	6691	65.610243035664	1.6320807860572
20	6818	67.242323821721	0.58851722914872
20	6867	67.83084105087	0.69037885741898
20	6939	68.521219908289	0.69158300763532
20	6988	69.212802915924	2.882874146341
20	7211	72.095677062265	2.392785596543
20	7499	74.488462658808	2.1239736577456
20	7757	76.612436316554	0.4459810141753
20	7784	77.058417330729	1.2015314480343
20	7904	78.259948778763	2.9029923003999
20	8272	81.162941079163	2.5984014067618
20	8530	83.761342485925	2.289923804848
20	8801	86.051266290773	0.78181737539565
20	8872	86.833083666169	0.026971501483857
20	8880	86.860055167653	0.89257709631703
20	8990	87.75263226397	0.55547778794511
20	9052	88.308110051915	0.56936217420945
20	9121	88.877472226124	0.67101443178017
20	9189	89.548486657904	3.2741428472892
20	9528	92.822629505193	2.4969846261751
20	9807	95.319614131368	2.0032399049432
20	9954	97.322854036311	6.6818657444653
20	10717	104.004719780776	1.9652618632145
20	10939	105.969981643991	2.0386547424501
20	11156	108.008636386441	0.99127053954718
20	11254	108.999906925988	0.087928841744055
20	11274	109.087835767732	2.4699424468326
20	11544	111.557778214565	3.7519591124288
20	11961	115.309737326994	1.0470966921951
20	12089	116.356834019189	3.4930433177676
20	12486	119.849877336957	1.1830531579122
20	12606	121.032930494869	3.2129086300071
20	12979	124.245839124876	0.50822424466669
20	13031	124.754063369543	4.3818402376903
20	13465	129.135903607233	0.64666496550986
20	13534	129.782568572743	3.2350816425887
20	13883	133.017650215332	4.4420247381817
20	14351	137.459674953514	0.56444823185399
20	14402	138.024123185368	0.51090759383694
20	14466	138.535030779205	6.2724151176948
20	15171	144.8074458969	6.8025418646153
20	15883	151.609987761515	0.27073447934204
20	15938	151.880722240857	3.0372859235726
20	16327	154.91800816443	1.5360222311925
20	16466	156.454030395622	0.78643642660311
20	16543	157.240466822225	2.4353696603616
20	16789	159.675836482587	0.83620607331827
20	16868	160.512042555905	0.82512670736383
20	16965	161.337169263269	0.050529981274429
20	16973	161.387699244543	2.4818500918361
20	17257	163.869549336379	3.8093237502541
20	17592	167.678873086633	1.9934176666531
20	17756	169.672290753286	1.4714011358649
20	17911	171.143691889151	0.55952413191841
20	17966	171.703216021069	0.98304855510776
20	18103	172.686264576177	0.42389666548384
20	18136	173.110161241661	0.36411757547286
20	18170	173.474278817134	1.1239361634187
20	18255	174.598214980553	0.035612336832379
20	18256	174.633827317385	0.71972165611358
20	18336	175.353548973499	3.7556971807412
20	18712	179.10924615424	0.59541211277587
20	18815	179.704658267016	0.81669924351837
20	18895	180.521357510534	0.9619780046767
20	18966	181.483335515211	2.6525937291429
20	19250	184.135929244354	2.0408800619016
20	19453	186.176809306256	0.36998357269678
20	19480	186.546792878953	3.0822413412573
20	19862	189.62903422021	1.7216808898409
20	20048	191.350715110051	0.69503944818527
20	20155	192.045754558236	2.352783799368
20	20392	194.398538357604	0.61349823866047
20	20456	195.012036596264	0.049304814683188
20	20466	195.061341410947	0.33095852944714
20	20509	195.392299940394	3.4847175422123
20	20967	198.877017482606	0.91737653265744
20	21064	199.794394015263	1.7658888939173
20	21216	201.56028290918	0.14995627336305
20	21243	201.710239182543	1.9597791322316
20	21456	203.670018314775	1.1743010768471
20	21610	204.844319391622	0.16718656869354
20	21623	205.011505960316	0.21232710455921
20	21651	205.223833064875	2.1484930995163
20	21900	207.372326164391	0.27618198404245
20	21932	207.648508148433	0.18779245016862
20	21961	207.836300598602	0.49003374888914
20	22037	208.326334347491	2.6439123283808
20	22325	210.970246675872	1.7507679480292
20	22516	212.721014623901	0.58622949459145
20	22599	213.307244118492	3.6971076462931
20	23031	217.004351764785	0.1876674471838
20	23059	217.192019211969	4.4730293343037
20	23596	221.665048546273	2.7519464673659
20	23912	224.416995013639	2.2777697777086
20	24158	226.694764791348	5.1841632363295
20	24702	231.878928027677	1.0805904065799
20	24803	232.959518434257	1.3149896507965
20	24948	234.274508085054	1.6469059321959
20	25104	235.92141401725	0.52832404066729
20	25182	236.449738057917	0.16118471273523
20	25186	236.610922770652	1.8240034365548
20	25405	238.434926207207	1.6406789710222
20	25577	240.075605178229	0.32037612734282
20	25626	240.395981305572	1.8445824415484
20	25842	242.24056374712	5.3023125752428
20	26453	247.542876322363	5.3580056965998
20	26966	252.900882018963	0.09456849238343
20	26977	252.995450511346	1.4605488110664
20	27172	254.455999322412	3.2572536807621
20	27511	257.713253003174	0.57842519293336
20	27566	258.291678196107	0.25630248360329
20	27578	258.54798067971	2.4421472808935
20	27864	260.990127960603	7.0425178239484
20	28615	268.032645784551	0.010422282799566
20	28618	268.043068067351	2.0835934155095
20	28807	270.126661482861	1.2089917851484
20	28921	271.335653268009	6.2938720089566
20	29471	277.629525276966	3.6579696289232
20	29940	281.287494905889	1.3922629712439
20	30106	282.679757877133	2.6479001973546
20	30379	285.327658074488	0.66458323433688
20	30444	285.992241308825	10.594750203389
20	31530	296.586991512214	0.15751107943802
20	31537	296.744502591652	2.3813471858943
20	31804	299.125849777546	2.4910940557325
20	32108	301.616943833278	0.45236086199939
20	32159	302.069304695277	0.52060747357252
20	32240	302.58991216885	0.93089372656229
20	32334	303.520805895412	2.5477338951366
20	32656	306.068539790549	1.1813846240635
20	32793	307.249924414613	0.93385510105285
20	32887	308.183779515666	0.29020997805722
20	32925	308.473989493723	0.36416728447667
20	32985	308.8381567782	1.4196113301884
20	33201	310.257768108388	4.4175013390316
20	33689	314.67526944742	4.3990792856781
20	34141	319.074348733098	1.2220281051839
20	34315	320.296376838282	1.0342504971181
20	34439	321.3306273354	0.23327205122755
20	34463	321.563899386628	3.8016751081879
20	34930	325.365574494816	0.77754373880268
20	35003	326.143118233619	4.723434084423
20	35578	330.866552318042	0.52651447603694
20	35646	331.393066794079	2.359949906445
20	35908	333.753016700524	1.0943495407259
20	36058	334.84736624125	0.4082164519113
20	36098	335.255582693161	2.7167661494064
20	36369	337.972348842567	0.3045714278633
20	36406	338.27692027043	4.3913466432095
20	36933	342.66826691364	0.20097655697114
20	36959	342.869243470611	0.54487369137577
20	37024	343.414117161987	2.5536181850753
20	37280	345.967735347062	0.36424697844257
20	37350	346.331982325505	4.3479770897839
20	37856	350.679959415289	2.6178848231811
20	38132	353.29784423847	0.74794752181647
20	38193	354.045791760286	1.6622073998655
20	38345	355.707999160152	0.64412502398643
20	38399	356.352124184138	2.7575010802531
20	38659	359.109625264391	2.6111978657565
20	38914	361.720823130147	1.4319967514352
20	39076	363.152819881582	0.55329605267964
20	39148	363.706115934262	0.1551091014105
20	39155	363.861225035672	0.33650624499111
20	39185	364.197731280663	1.7490225040354
20	39354	365.946753784698	3.6755663748575
20	39724	369.622320159555	5.0751882597224
20	40230	374.697508419277	1.3882843801835
20	40393	376.08579279946	3.1678926018869
20	40689	379.253685401347	1.9855574250809
20	40954	381.239242826428	1.0737503682192
20	41068	382.312993194647	4.283170774329
20	41467	386.596163968976	1.2444506955738
20	41602	387.84061466455	2.4043431896278
20	41847	390.244957854178	2.8985950664795
20	42128	393.143552920658	0.60115223256348
20	42203	393.744705153221	4.0775402265406
20	42721	397.822245379762	0.72628120635896
20	42781	398.548526586121	0.18851007736244
20	42795	398.737036663483	3.4955148036494
21	1718	16.937337807301	1.1601079656901
21	1846	18.097445772991	1.7041872130578
21	2096	19.801632986049	1.2178033027017
21	2227	21.019436288751	1.9391586265397
21	2388	22.958594915291	2.0925060757846
21	2602	25.051100991076	0.92578604147479
21	2672	25.976887032551	0.27210822019203
21	2709	26.248995252743	5.9270922565072
21	3311	32.17608750925	4.5636594822834
21	3792	36.739746991533	0.030424822940849
21	3794	36.770171814474	0.12899192815683
21	3816	36.899163742631	2.9840662083411
21	4131	39.883229950972	2.2501613521058
21	4290	42.133391303078	1.5319955496339
21	4413	43.665386852712	1.3615338949112
21	4565	45.026920747623	1.8603091638574
21	4726	46.88722991148	5.2271568362169
21	5263	52.114386747697	2.431671525935
21	5548	54.546058273632	0.25089755910984
21	5585	54.796955832742	0.60930020734868
21	5659	55.406256040091	3.9149903021839
21	6061	59.321246342275	3.4994678404101
21	6380	62.820714182685	0.78240889383459
21	6466	63.60312307652	0.37176947371346
21	6486	63.974892550233	7.1375126173632
21	7155	71.112405167596	3.3972186995887
21	7500	74.509623867185	3.0963610850961
21	7841	77.605984952281	1.1996853194825
21	7969	78.805670271764	0.77479045547561
21	8079	79.58046072724	2.4473025007094
21	8366	82.027763227949	0.22350003116966
21	8384	82.251263259119	2.0128404076984
21	8588	84.264103666817	6.6330869295403
21	9329	90.897190596357	1.4119502488655
21	9493	92.309140845223	0.7192053028944
21	9561	93.028346148117	3.9333347778145
21	9932	96.961680925932	5.7390509593998
21	10561	102.700731885332	0.75137443172272
21	10675	103.452106317055	0.65130252571717
21	10732	104.103408842772	1.23591492054
21	10852	105.339323763312	2.6682587971372
21	11155	108.007582560449	3.0502771831674
21	11493	111.057859743616	1.1211065139996
21	11582	112.178966257616	1.2874479656356
21	11747	113.466414223252	0.85914706769203
21	11795	114.325561290944	0.56971532172623
21	11885	114.89527661267	3.412657241254
21	12335	118.307933853924	1.0949856634131
21	12436	119.402919517337	2.184883025557
21	12685	121.587802542894	0.27237216672432
21	12713	121.860174709618	0.67623905000521
21	12789	122.536413759623	1.1117170183444
21	12903	123.648130777967	2.7192820702752
21	13168	126.367412848242	0.64030458284877
21	13241	127.007717431091	0.12238672129956
21	13252	127.130104152391	2.7426503920193
21	13543	129.87275454441	1.1697930998624
21	13692	131.042547644272	0.24643451062186
21	13716	131.288982154894	2.1800549838282
21	13930	133.469037138722	3.6449749193424
21	14283	137.114012058064	2.1550758315288
21	14578	139.269087889593	1.924368286658
21	14805	141.193456176251	2.1955843282002
21	15027	143.389040504451	6.5060921074137
21	15662	149.895132611865	1.2326136222329
21	15850	151.127746234098	0.29034941079817
21	15868	151.418095644896	0.92497211062181
21	15996	152.343067755518	0.81264268441301
21	16084	153.155710439931	1.1835750127115
21	16222	154.339285452643	0.864343015787
21	16364	155.20362846843	0.97179808980379
21	16443	156.175426558234	0.63084697856386
21	16499	156.806273536798	3.4689451586209
21	16841	160.275218695419	3.4907531562913
21	17246	163.76597185171	4.5852433777835
21	17639	168.351215229493	4.5390337496827
21	18109	172.890248979176	2.0708547252672
21	18283	174.961103704443	1.7813586730781
21	18501	176.742462377521	0.87957282265047
21	18552	177.622035200171	1.7139802452438
21	18745	179.336015445415	0.1066432062028
21	18762	179.442658651618	1.7713960361419
21	18955	181.21405468776	5.3864732062668
21	19486	186.600527894027	1.8371873166903
21	19731	188.437715210717	0.69643723992719
21	19804	189.134152450644	1.3362656594041
21	19963	190.470418110048	0.14387976962132
21	19986	190.614297879669	1.0603460871156
21	20100	191.674643966785	0.1500573345855
21	20133	191.824701301371	3.7856677492598
21	20535	195.610369050631	1.5226640082965
21	20724	197.133033058927	2.1450529993458
21	21019	199.278086058273	0.65140562809948
21	21081	199.929491686372	2.2114434374727
21	21297	202.140935123845	0.044252050602245
21	21298	202.185187174447	1.195213787059
21	21438	203.380400961506	0.54876788490452
21	21489	203.929168846411	1.695893499854
21	21683	205.625062346265	1.1107926317582
21	21805	206.735854978023	5.9806139310422
21	22515	212.716468909065	3.5074747836144
21	22940	216.223943692679	8.6266454222502
21	23970	224.850589114929	4.9674674096125
21	24513	229.818056524541	3.5745738299822
21	24845	233.392630354523	0.46198156591057
21	24894	233.854611920434	4.2545900970542
21	25362	238.109202017488	2.0434292010641
21	25598	240.152631218552	0.23174899613459
21	25625	240.384380214687	2.3112129253753
21	25902	242.695593140062	0.23786401384304
21	25946	242.933457153905	0.49418611938197
21	26039	243.427643273287	2.7970299486387
21	26282	246.224673221926	1.2217681342309
21	26431	247.446441356157	2.4638909756336
21	26699	249.910332331791	2.8450258693995
21	26964	252.755358201191	6.6126001304821
21	27686	259.367958331673	0.41388006446316
21	27728	259.781838396136	1.3712842223687
21	27886	261.153122618505	3.9648998212399
21	28270	265.118022439745	3.1569300559251
21	28637	268.27495249567	0.2959067305868
21	28657	268.570859226257	0.83716771611317
21	28755	269.40802694237	3.2493220094671
21	29066	272.657348951837	2.0677009984513
21	29224	274.725049950288	0.32273746341819
21	29232	275.047787413706	2.4280540459611
21	29463	277.475841459667	7.1103559169616
21	30283	284.586197376629	0.26540348865621
21	30320	284.851600865285	5.8848259910594
21	30910	290.736426856344	1.0606804288128
21	31035	291.797107285157	1.7728285878925
21	31183	293.569935873049	0.22901684922745
21	31220	293.798952722276	1.9990386844947
21	31445	295.797991406771	2.4311911216003
21	31707	298.229182528371	0.46958923575575
21	31736	298.698771764127	1.5940898081403
21	31943	300.292861572267	2.1781187803169
21	32229	302.470980352584	0.38573415346996
21	32275	302.856714506054	6.6312059159476
21	33059	309.487920422002	1.4993751266113
21	33268	310.987295548613	5.8093003063091
21	33888	316.796595854922	0.21871294035462
21	33911	317.015308795277	0.41020278339478
21	33995	317.425511578672	2.9498729502979
21	34322	320.37538452897	6.3700315612351
21	35091	326.745416090205	1.7773237588101
21	35320	328.522739849015	0.8099146298247
21	35435	329.33265447884	0.21295182416009
21	35461	329.545606303	4.9575415322689
21	36019	334.503147835269	1.0837426073318
21	36137	335.586890442601	0.74037539829899
21	36181	336.3272658409	0.2171385681917
21	36220	336.544404409092	0.088215142412581
21	36226	336.632619551505	0.24113891877598
21	36253	336.873758470281	0.39711059359271
21	36290	337.270869063874	2.1255761037647
21	36547	339.396445167639	6.2171948274077
21	37258	345.613639995047	0.10634866298041
21	37264	345.719988658027	5.9394180279502
21	37955	351.659406685977	2.4245941610819
21	38194	354.084000847059	2.3858425381618
21	38420	356.469843385221	2.4422014847348
21	38635	358.912044869956	0.06481982245638
21	38646	358.976864692412	0.90044585046219
21	38729	359.877310542874	4.5908746841446
21	39197	364.468185227019	7.8592990635582
21	39986	372.327484290577	3.1153526891359
21	40311	375.442836979713	0.76078012709365
21	40394	376.203617106807	1.665005773999
21	40596	377.868622880806	1.3944799636209
21	40692	379.263102844427	1.9729590056517
21	40953	381.236061850079	0.26044827983262
21	40977	381.496510129912	3.6186020844651
21	41310	385.115112214377	1.1490190996833
21	41428	386.26413131406	2.2686892216646
21	41682	388.532820535725	2.5587706703111
21	41928	391.091591206036	3.1826474308342
21	42269	394.27423863687	1.3035993889303
21	42431	395.5778380258	1.0546562131215
21	42558	396.632494238922	3.1847735384063
21	42884	399.817267777328	0.87009253512995

