version 2
run Nonmonitoring-exponential-593-20210224-17:49:33-27108
attr configname Nonmonitoring-exponential
attr datetime 20210224-17:49:33
attr experiment Nonmonitoring-exponential
attr inifile aerocom.ini
attr iterationvars $0=50
attr iterationvarsf 50-
attr measurement $0=50
attr network Aerocom
attr processid 27108
attr repetition 93
attr replication #93
attr resultdir results
attr runnumber 593
attr seedset 93
param **.t 2s
param **.k 50ms
param **.X 0.05s
param **.m 1s
param **.tDistribution "\"exponential\""
param **.operationMode 1
param **.s "70 byte"
param **.dimPoolMax 10000
param **.dimPoolMin 8000
param **.nDL 16
param **.nA 1
param **.DLMaxCapacity 0
param **.trasmitting false

vector 0 Aerocom.aircraft[0].packetGenerator arrivalTime:vector ETV
attr "" ""
attr source computeArrivalTime
vector 1 Aerocom.aircraft[0].linkSelector waitingTime:vector ETV
attr "" ""
attr source computeWaitingTime
vector 2 Aerocom.aircraft[0].linkSelector queueLength:vector ETV
attr "" ""
attr source computeQueueLength
vector 3 Aerocom.aircraft[0].dataLink[13] actualCapacity:vector ETV
attr "" ""
attr source computeActualCapacity
vector 4 Aerocom.aircraft[0].linkSelector serviceTime:vector ETV
attr "" ""
attr source computeServiceTime
vector 5 Aerocom.aircraft[0].linkSelector responseTime:vector ETV
attr "" ""
attr source computeResponseTime
vector 6 Aerocom.aircraft[0].dataLink[12] tDistribution:vector ETV
attr "" ""
attr source computeTDistribution
vector 7 Aerocom.aircraft[0].dataLink[10] tDistribution:vector ETV
attr "" ""
attr source computeTDistribution
vector 8 Aerocom.aircraft[0].dataLink[5] tDistribution:vector ETV
attr "" ""
attr source computeTDistribution
vector 9 Aerocom.aircraft[0].dataLink[14] tDistribution:vector ETV
attr "" ""
attr source computeTDistribution
vector 10 Aerocom.aircraft[0].dataLink[6] tDistribution:vector ETV
attr "" ""
attr source computeTDistribution
vector 11 Aerocom.aircraft[0].dataLink[1] tDistribution:vector ETV
attr "" ""
attr source computeTDistribution
vector 12 Aerocom.aircraft[0].dataLink[15] tDistribution:vector ETV
attr "" ""
attr source computeTDistribution
vector 13 Aerocom.aircraft[0].dataLink[11] tDistribution:vector ETV
attr "" ""
attr source computeTDistribution
vector 14 Aerocom.aircraft[0].dataLink[2] tDistribution:vector ETV
attr "" ""
attr source computeTDistribution
vector 15 Aerocom.aircraft[0].dataLink[0] tDistribution:vector ETV
attr "" ""
attr source computeTDistribution
vector 16 Aerocom.aircraft[0].dataLink[4] tDistribution:vector ETV
attr "" ""
attr source computeTDistribution
vector 17 Aerocom.aircraft[0].dataLink[13] tDistribution:vector ETV
attr "" ""
attr source computeTDistribution
vector 18 Aerocom.aircraft[0].dataLink[9] tDistribution:vector ETV
attr "" ""
attr source computeTDistribution
vector 19 Aerocom.aircraft[0].dataLink[8] tDistribution:vector ETV
attr "" ""
attr source computeTDistribution
vector 20 Aerocom.aircraft[0].dataLink[3] tDistribution:vector ETV
attr "" ""
attr source computeTDistribution
vector 21 Aerocom.aircraft[0].dataLink[7] tDistribution:vector ETV
attr "" ""
attr source computeTDistribution
0	1085	10.049188656957	0.046113941733
0	1090	10.09530259869	0.028123036652
0	1095	10.123425635342	0.013070797745
0	1100	10.136496433087	0.006392196912
0	1102	10.142888629999	0.005504867854
0	1107	10.148393497853	0.030187741737
0	1117	10.17858123959	0.004203561788
0	1119	10.182784801378	0.051619518516
0	1127	10.234404319894	0.042057019808
0	1132	10.276461339702	0.009155943228
0	1137	10.28561728293	0.029550490338
0	1143	10.315167773268	0.024702847863
0	1149	10.339870621131	0.034772386293
0	1155	10.374643007424	0.076018820425
0	1161	10.450661827849	0.082188059998
0	1166	10.532849887847	0.029392814417
0	1171	10.562242702264	0.042328121976
0	1176	10.60457082424	0.026506445174
0	1181	10.631077269414	0.018420299938
0	1186	10.649497569352	0.018042408171
0	1191	10.667539977523	0.076420892886
0	1196	10.743960870409	0.021368861978
0	1201	10.765329732387	0.094307341245
0	1206	10.859637073632	0.009638806783
0	1211	10.869275880415	0.00050069649
0	1213	10.869776576905	0.018224434142
0	1221	10.888001011047	0.009431963061
0	1226	10.897432974108	0.021885749916
0	1232	10.919318724024	0.08540898263
0	1239	11.004727706654	0.149294359257
0	1247	11.154022065911	0.033395963133
0	1252	11.187418029044	0.050096918754
0	1257	11.237514947798	0.094360976844
0	1262	11.331875924642	0.065714128811
0	1270	11.397590053453	0.124382966005
0	1275	11.521973019458	0.052305375709
0	1282	11.574278395167	0.036177831694
0	1287	11.610456226861	0.065871823394
0	1292	11.676328050255	0.00128424256
0	1294	11.677612292815	0.029713312058
0	1302	11.707325604873	0.094340738265
0	1309	11.801666343138	0.011997051838
0	1314	11.813663394976	0.042041677839
0	1320	11.855705072815	0.042017346864
0	1325	11.897722419679	0.00935426034
0	1330	11.907076680019	0.009598744754
0	1335	11.916675424773	0.003134814106
0	1337	11.919810238879	0.062233287079
0	1347	11.982043525958	0.053290780081
0	1352	12.035334306039	0.026408549064
0	1358	12.061742855103	0.024529412754
0	1363	12.086272267857	0.013559321563
0	1368	12.09983158942	0.019506062251
0	1373	12.119337651671	0.010868441109
0	1378	12.13020609278	0.051719031185
0	1387	12.181925123965	0.042627496815
0	1394	12.22455262078	0.011184791159
0	1399	12.235737411939	0.364888539995
0	1406	12.600625951934	0.1818889077
0	1413	12.782514859634	0.028337247417
0	1418	12.810852107051	0.019684772529
0	1423	12.83053687958	0.011133889343
0	1428	12.841670768923	0.056194487242
0	1434	12.897865256165	0.047201070475
0	1440	12.94506632664	0.316578812475
0	1450	13.261645139115	0.07345855723
0	1455	13.335103696345	0.051515161726
0	1460	13.386618858071	0.036919311026
0	1465	13.423538169097	0.013009936628
0	1471	13.436548105725	0.00876391908
0	1476	13.445312024805	0.137728187706
0	1482	13.583040212511	0.016021999328
0	1487	13.599062211839	0.048819931986
0	1492	13.647882143825	0.031567798005
0	1497	13.67944994183	0.018579194022
0	1503	13.698029135852	0.027760734417
0	1508	13.725789870269	0.036447120263
0	1513	13.762236990532	0.098408131023
0	1520	13.860645121555	0.072945517681
0	1526	13.933590639236	0.000921945154
0	1528	13.93451258439	0.014871267855
0	1533	13.949383852245	0.036847099579
0	1541	13.986230951824	0.165779608659
0	1549	14.152010560483	5.0708757e-05
0	1551	14.15206126924	0.032620813617
0	1559	14.184682082857	0.048880978022
0	1564	14.233563060879	0.056320988443
0	1571	14.289884049322	0.001650971772
0	1573	14.291535021094	0.007924213714
0	1578	14.299459234808	0.019463861602
0	1586	14.31892309641	0.07189189969
0	1592	14.3908149961	0.059491819598
0	1597	14.450306815698	0.000586362166
0	1599	14.450893177864	0.02012735702
0	1607	14.471020534884	0.037655649726
0	1612	14.50867618461	0.064393966455
0	1617	14.573070151065	0.011824570868
0	1622	14.584894721933	0.007689536166
0	1624	14.592584258099	0.031102365093
0	1632	14.623686623192	0.039111693465
0	1637	14.662798316657	0.013479333403
0	1642	14.67627765006	0.090716594451
0	1648	14.766994244511	0.12187702086
0	1653	14.888871265371	0.001639550289
0	1655	14.89051081566	0.055352403727
0	1663	14.945863219387	0.028007895063
0	1668	14.97387111445	0.082242551479
0	1673	15.056113665929	0.00048990536
0	1675	15.056603571289	0.049440727434
0	1683	15.106044298723	0.028672157433
0	1688	15.134716456156	0.038093764527
0	1693	15.172810220683	0.024844883905
0	1700	15.197655104588	0.023634571955
0	1705	15.221289676543	0.009287213464
0	1710	15.230576890007	0.028994000919
0	1715	15.259570890926	0.00162703542
0	1717	15.261197926346	0.112584864655
0	1726	15.373782791001	0.007920584227
0	1731	15.381703375228	0.0047711577
0	1733	15.386474532928	0.050490902394
0	1741	15.436965435322	0.012289302124
0	1746	15.449254737446	0.039190391802
0	1751	15.488445129248	0.018237560284
0	1756	15.506682689532	0.057430948791
0	1761	15.564113638323	0.026475482934
0	1766	15.590589121257	0.036801117239
0	1772	15.627390238496	0.060261290979
0	1778	15.687651529475	0.021531445424
0	1784	15.709182974899	0.024109786546
0	1790	15.733292761445	0.117149227448
0	1795	15.850441988893	0.010075193726
0	1800	15.860517182619	0.022415592899
0	1805	15.882932775518	0.138733925056
0	1811	16.021666700574	0.060588473123
0	1816	16.082255173697	0.158220930785
0	1823	16.240476104482	0.010359487499
0	1828	16.250835591981	0.003237276568
0	1830	16.254072868549	0.052450110836
0	1838	16.306522979385	0.0004320042
0	1840	16.306954983585	0.123562099454
0	1850	16.430517083039	0.013113188702
0	1855	16.443630271741	0.020636064468
0	1860	16.464266336209	0.038265690772
0	1865	16.502532026981	0.020426253587
0	1870	16.522958280568	0.042349113139
0	1876	16.565307393707	0.03434747629
0	1881	16.599654869997	0.01112491302
0	1887	16.610779783017	0.041966855905
0	1892	16.652746638922	0.047569637002
0	1899	16.700316275924	0.051062510061
0	1904	16.751378785985	0.002964666699
0	1906	16.754343452684	0.005319684458
0	1911	16.759663137142	0.12114854186
0	1919	16.880811679002	0.002872402697
0	1921	16.883684081699	0.008911479636
0	1926	16.892595561335	0.02847852458
0	1935	16.921074085915	0.045765861332
0	1940	16.966839947247	0.065236970258
0	1946	17.032076917505	0.128060318946
0	1953	17.160137236451	0.042312292187
0	1958	17.202449528638	0.021553700974
0	1964	17.224003229612	0.041919899583
0	1969	17.265923129195	0.037309528955
0	1974	17.30323265815	0.085573297372
0	1980	17.388805955522	0.089801072717
0	1985	17.478607028239	0.030900932959
0	1990	17.509507961198	0.033211089876
0	1995	17.542719051074	0.056625620391
0	2001	17.599344671465	0.016640984481
0	2007	17.615985655946	0.056498890067
0	2012	17.672484546013	0.014582234039
0	2017	17.687066780052	0.255848071387
0	2024	17.942914851439	0.012515379941
0	2029	17.95543023138	0.025781658263
0	2034	17.981211889643	0.041896752329
0	2040	18.023108641972	0.02859876245
0	2045	18.051707404422	0.032565824803
0	2050	18.084273229225	0.173746241192
0	2056	18.258019470417	0.058796793135
0	2061	18.316816263552	0.04637130784
0	2067	18.363187571392	0.012000637031
0	2072	18.375188208423	0.100421779608
0	2078	18.475609988031	0.004939397079
0	2080	18.48054938511	0.060782318853
0	2089	18.541331703963	0.083073353779
0	2096	18.624405057742	0.017052671234
0	2101	18.641457728976	0.048160206231
0	2106	18.689617935207	0.078930839823
0	2111	18.76854877503	0.038198387502
0	2116	18.806747162532	0.046626575915
0	2122	18.853373738447	0.00452082892
0	2124	18.857894567367	0.042889227966
0	2132	18.900783795333	0.011452365501
0	2137	18.912236160834	0.092872940508
0	2142	19.005109101342	0.013449229043
0	2147	19.018558330385	0.000428173821
0	2149	19.018986504206	0.007210992238
0	2155	19.026197496444	0.013110264755
0	2160	19.039307761199	0.000754199568
0	2162	19.040061960767	0.03285389641
0	2173	19.072915857177	0.080274151442
0	2178	19.153190008619	0.035100098587
0	2183	19.188290107206	0.117123523684
0	2188	19.30541363089	0.015393394051
0	2193	19.320807024941	0.094130735043
0	2199	19.414937759984	0.189750048777
0	2205	19.604687808761	0.037695351998
0	2210	19.642383160759	0.040373579419
0	2215	19.682756740178	0.02613472752
0	2220	19.708891467698	0.102005184689
0	2226	19.810896652387	0.033231074258
0	2232	19.844127726645	0.045708759233
0	2240	19.889836485878	0.117917082778
0	2245	20.007753568656	0.079959367548
0	2250	20.087712936204	0.01251990605
0	2255	20.100232842254	0.077606321566
0	2261	20.17783916382	0.13256404749
0	2266	20.31040321131	0.072080716204
0	2271	20.382483927514	0.073952985115
0	2276	20.456436912629	0.059229219187
0	2282	20.515666131816	0.025095647672
0	2287	20.540761779488	0.093584049969
0	2292	20.634345829457	0.139805435223
0	2297	20.77415126468	0.077479636029
0	2303	20.851630900709	0.062991707479
0	2308	20.914622608188	0.012594919273
0	2313	20.927217527461	0.00082464055
0	2315	20.928042168011	0.047873455152
0	2323	20.975915623163	0.160053939373
0	2329	21.135969562536	0.002494596989
0	2331	21.138464159525	0.020180673796
0	2339	21.158644833321	0.113681383312
0	2345	21.272326216633	0.085376481002
0	2351	21.357702697635	0.015411375117
0	2356	21.373114072752	0.000570730871
0	2358	21.373684803623	0.046077182373
0	2366	21.419761985996	0.004101941595
0	2368	21.423863927591	0.060047715846
0	2376	21.483911643437	0.035795312185
0	2381	21.519706955622	0.01589712473
0	2386	21.535604080352	0.064812341838
0	2392	21.60041642219	0.001457436683
0	2394	21.601873858873	0.028500294397
0	2402	21.63037415327	0.012221769502
0	2407	21.642595922772	0.0397751574
0	2413	21.682371080172	0.005302151725
0	2415	21.687673231897	0.01119061516
0	2423	21.698863847057	0.035339499868
0	2428	21.734203346925	0.098603669422
0	2434	21.832807016347	0.036025871069
0	2440	21.868832887416	0.087818496432
0	2445	21.956651383848	0.01184316262
0	2450	21.968494546468	0.026756665853
0	2456	21.995251212321	0.110823734809
0	2461	22.10607494713	0.07530297319
0	2466	22.18137792032	0.047485437143
0	2471	22.228863357463	0.266668789433
0	2479	22.495532146896	0.018230761516
0	2484	22.513762908412	0.001391737483
0	2486	22.515154645895	0.020449336805
0	2494	22.5356039827	0.027568246687
0	2499	22.563172229387	0.065089477158
0	2504	22.628261706545	0.046254885677
0	2509	22.674516592222	0.022107178999
0	2514	22.696623771221	0.01435651655
0	2519	22.710980287771	0.054591567305
0	2525	22.765571855076	0.02357878806
0	2530	22.789150643136	0.018342001295
0	2535	22.807492644431	0.024519809822
0	2540	22.832012454253	0.097916305672
0	2546	22.929928759925	0.030209982549
0	2551	22.960138742474	0.108672751499
0	2556	23.068811493973	0.052934794359
0	2563	23.121746288332	0.021234209383
0	2568	23.142980497715	0.046013572687
0	2573	23.188994070402	0.038183655446
0	2578	23.227177725848	0.088118928937
0	2584	23.315296654785	0.068810129137
0	2590	23.384106783922	0.053755620393
0	2596	23.437862404315	0.126751566599
0	2601	23.564613970914	0.094857163753
0	2606	23.659471134667	0.150982805377
0	2615	23.810453940044	0.046424806052
0	2620	23.856878746096	0.024956196798
0	2626	23.881834942894	0.02982492699
0	2631	23.911659869884	0.009486458155
0	2636	23.921146328039	0.016965293624
0	2641	23.938111621663	0.027605758664
0	2646	23.965717380327	0.067913926923
0	2651	24.03363130725	0.031210320272
0	2656	24.064841627522	0.008730586386
0	2661	24.073572213908	0.026664237519
0	2666	24.100236451427	0.250037561717
0	2672	24.350274013144	0.0623558412
0	2677	24.412629854344	0.03946182402
0	2682	24.452091678364	0.040811337583
0	2687	24.492903015947	0.018539869587
0	2692	24.511442885534	0.040941101178
0	2698	24.552383986712	0.03697549293
0	2703	24.589359479642	0.00837595349
0	2708	24.597735433132	0.022823794351
0	2714	24.620559227483	0.008749954951
0	2719	24.629309182434	0.043560024922
0	2726	24.672869207356	0.022479468577
0	2731	24.695348675933	0.058729650888
0	2736	24.754078326821	0.135800168803
0	2743	24.889878495624	0.019993224685
0	2748	24.909871720309	0.014220319974
0	2754	24.924092040283	0.020047701473
0	2759	24.944139741756	0.116553738136
0	2764	25.060693479892	0.00770904642
0	2766	25.068402526312	0.07248345716
0	2775	25.140885983472	0.025860341422
0	2782	25.166746324894	0.021848420781
0	2787	25.188594745675	0.043874835044
0	2793	25.232469580719	0.005137433836
0	2795	25.237607014555	0.01859770763
0	2804	25.256204722185	0.110629948403
0	2809	25.366834670588	0.026877285
0	2814	25.393711955588	0.004727572145
0	2816	25.398439527733	0.08726981163
0	2824	25.485709339363	0.062129803352
0	2830	25.547839142715	0.007235101742
0	2832	25.555074244457	0.197849990628
0	2840	25.752924235085	0.015475068654
0	2845	25.768399303739	0.093169603161
0	2851	25.8615689069	0.042731730891
0	2856	25.904300637791	0.038399618514
0	2861	25.942700256305	0.004988704859
0	2863	25.947688961164	0.058907293689
0	2871	26.006596254853	0.009217892954
0	2876	26.015814147807	0.052880193991
0	2881	26.068694341798	0.126520142425
0	2886	26.195214484223	0.000698053205
0	2888	26.195912537428	0.020748522553
0	2896	26.216661059981	0.047235069544
0	2902	26.263896129525	0.017433459755
0	2908	26.28132958928	0.054906699855
0	2914	26.336236289135	0.020748795964
0	2919	26.356985085099	0.091524919624
0	2924	26.448510004723	0.024412610367
0	2929	26.47292261509	0.01960395221
0	2934	26.4925265673	0.067246555759
0	2939	26.559773123059	0.022059890878
0	2944	26.581833013937	0.001785227961
0	2946	26.583618241898	0.050767921161
0	2954	26.634386163059	0.014758179918
0	2959	26.649144342977	0.0064920863
0	2961	26.655636429277	0.047500907505
0	2969	26.703137336782	1.9982573e-05
0	2971	26.703157319355	0.125296235703
0	2981	26.828453555058	0.042260989218
0	2987	26.870714544276	0.004594114645
0	2989	26.875308658921	0.079373227467
0	2997	26.954681886388	0.039357076879
0	3002	26.994038963267	0.04628047691
0	3007	27.040319440177	0.063948458596
0	3012	27.104267898773	0.125376794236
0	3018	27.229644693009	0.007136905084
0	3020	27.236781598093	0.035913329099
0	3029	27.272694927192	0.001873923077
0	3031	27.274568850269	0.027667741775
0	3039	27.302236592044	0.028747443871
0	3044	27.330984035915	0.056532954691
0	3050	27.387516990606	0.021282535269
0	3055	27.408799525875	0.120271413795
0	3060	27.52907093967	0.007620353973
0	3062	27.536691293643	0.022249193578
0	3070	27.558940487221	0.025781286494
0	3075	27.584721773715	0.076738788956
0	3081	27.661460562671	0.007542548591
0	3083	27.669003111262	0.064612119097
0	3091	27.733615230359	0.144672506173
0	3096	27.878287736532	0.003405515581
0	3098	27.881693252113	0.046725578575
0	3106	27.928418830688	0.012794400898
0	3111	27.941213231586	0.062665585246
0	3116	28.003878816832	0.016855937276
0	3121	28.020734754108	0.01150226611
0	3126	28.032237020218	0.022813957285
0	3132	28.055050977503	0.038845464096
0	3137	28.093896441599	0.051911009298
0	3143	28.145807450897	0.052540641945
0	3148	28.198348092842	0.048062081569
0	3154	28.246410174411	0.006523574082
0	3157	28.252933748493	0.1228470529
0	3166	28.375780801393	0.001303586438
0	3168	28.377084387831	0.030032172299
0	3176	28.40711656013	0.010872159946
0	3181	28.417988720076	0.081423446289
0	3186	28.499412166365	0.009893434542
0	3191	28.509305600907	0.065499622952
0	3196	28.574805223859	0.231296697342
0	3202	28.806101921201	0.039632681725
0	3207	28.845734602926	0.048313353206
0	3213	28.894047956132	0.003041216101
0	3215	28.897089172233	0.115853912874
0	3224	29.012943085107	0.037785265046
0	3229	29.050728350153	0.186406425484
0	3234	29.237134775637	0.019582314141
0	3239	29.256717089778	0.022219976328
0	3244	29.278937066106	0.017541897363
0	3249	29.296478963469	0.042991657367
0	3255	29.339470620836	0.040523997839
0	3261	29.379994618675	0.013677073713
0	3266	29.393671692388	0.01579690947
0	3273	29.409468601858	0.144124955907
0	3280	29.553593557765	0.017847606785
0	3285	29.57144116455	0.058195854951
0	3291	29.629637019501	0.000446181395
0	3293	29.630083200896	0.164649664602
0	3302	29.794732865498	0.085529993718
0	3309	29.880262859216	0.194251934002
0	3315	30.074514793218	0.026414171832
0	3320	30.10092896505	0.018777649783
0	3325	30.119706614833	0.053674732205
0	3330	30.173381347038	0.025322466846
0	3336	30.198703813884	0.003882296488
0	3338	30.202586110372	0.079791836209
0	3348	30.282377946581	0.013853135786
0	3353	30.296231082367	0.026982979895
0	3358	30.323214062262	0.065605647252
0	3365	30.388819709514	0.058047790744
0	3371	30.446867500258	0.024537931187
0	3376	30.471405431445	0.017968859771
0	3381	30.489374291216	0.030408042844
0	3386	30.51978233406	0.215520368566
0	3392	30.735302702626	0.058028823674
0	3397	30.7933315263	0.022757434081
0	3402	30.816088960381	0.00490983718
0	3404	30.820998797561	0.008502366214
0	3409	30.829501163775	0.007347205199
0	3414	30.836848368974	0.040638645886
0	3422	30.87748701486	0.017512925298
0	3427	30.894999940158	0.062897860001
0	3432	30.957897800159	0.104768359875
0	3437	31.062666160034	0.012851510848
0	3442	31.075517670882	0.013406376387
0	3447	31.088924047269	0.035538411218
0	3452	31.124462458487	0.061916913748
0	3457	31.186379372235	0.030476362848
0	3462	31.216855735083	0.022619556158
0	3467	31.239475291241	0.031577936708
0	3472	31.271053227949	0.05765671743
0	3477	31.328709945379	0.062475895877
0	3482	31.391185841256	0.003850594521
0	3484	31.395036435777	0.023469203798
0	3493	31.418505639575	0.016640015818
0	3498	31.435145655393	0.021566309087
0	3503	31.45671196448	0.012940885175
0	3508	31.469652849655	0.017103579505
0	3514	31.48675642916	0.024436278514
0	3519	31.511192707674	0.145622955173
0	3527	31.656815662847	0.047795490749
0	3532	31.704611153596	0.102281208305
0	3538	31.806892361901	0.111302503261
0	3543	31.918194865162	0.02882489412
0	3548	31.947019759282	0.071363433527
0	3554	32.018383192809	0.024566805611
0	3559	32.04294999842	0.130509960131
0	3565	32.173459958551	0.039056847362
0	3571	32.212516805913	0.031709317556
0	3576	32.244226123469	0.059288119454
0	3581	32.303514242923	0.071897272751
0	3586	32.375411515674	0.095973052815
0	3592	32.471384568489	0.026012543355
0	3597	32.497397111844	0.051212810947
0	3602	32.548609922791	0.008216259803
0	3607	32.556826182594	0.06117687454
0	3612	32.618003057134	0.014302014704
0	3617	32.632305071838	0.074928125067
0	3622	32.707233196905	0.052138267747
0	3627	32.759371464652	0.285296722152
0	3636	33.044668186804	0.105053255599
0	3641	33.149721442403	0.172041466694
0	3648	33.321762909097	0.01314572349
0	3653	33.334908632587	0.011527272002
0	3658	33.346435904589	0.100556146158
0	3664	33.446992050747	0.002250467559
0	3666	33.449242518306	0.010907407083
0	3671	33.460149925389	0.059286727351
0	3680	33.51943665274	0.001407138054
0	3682	33.520843790794	0.035867271102
0	3690	33.556711061896	0.060186472951
0	3696	33.616897534847	0.033606719853
0	3701	33.6505042547	0.028002673249
0	3706	33.678506927949	0.07073181305
0	3712	33.749238740999	0.002387619872
0	3714	33.751626360871	0.033591371486
0	3722	33.785217732357	0.021091988518
0	3727	33.806309720875	0.02345949574
0	3732	33.829769216615	0.061155770728
0	3737	33.890924987343	0.063146457157
0	3742	33.9540714445	0.106446522055
0	3748	34.060517966555	0.159204782961
0	3753	34.219722749516	0.125817672548
0	3760	34.345540422064	0.24894571052
0	3768	34.594486132584	0.010501583943
0	3773	34.604987716527	0.007869037709
0	3778	34.612856754236	0.020247207738
0	3783	34.633103961974	0.038045307551
0	3789	34.671149269525	0.024664781735
0	3795	34.69581405126	0.06133848777
0	3800	34.75715253903	0.175405466612
0	3805	34.932558005642	0.01199050348
0	3811	34.944548509122	0.109653038948
0	3817	35.05420154807	0.053828741379
0	3824	35.108030289449	0.071943227979
0	3831	35.179973517428	0.006318636419
0	3834	35.186292153847	0.014808364252
0	3843	35.201100518099	0.089071674644
0	3850	35.290172192743	0.03737268259
0	3856	35.327544875333	0.027189639787
0	3861	35.35473451512	0.064376353887
0	3866	35.419110869007	0.002611049527
0	3868	35.421721918534	0.076352508062
0	3877	35.498074426596	0.006745366067
0	3879	35.504819792663	0.037312467086
0	3888	35.542132259749	0.021954504183
0	3893	35.564086763932	0.149601649057
0	3898	35.713688412989	0.13672869215
0	3903	35.850417105139	0.003485751653
0	3905	35.853902856792	0.043208156247
0	3913	35.897111013039	0.014587461965
0	3918	35.911698475004	0.055201748591
0	3923	35.966900223595	0.032294439936
0	3928	35.999194663531	0.03180493549
0	3933	36.030999599021	0.077885440907
0	3939	36.108885039928	0.098695994809
0	3944	36.207581034737	0.009198235794
0	3949	36.216779270531	0.022063036097
0	3954	36.238842306628	0.075328785972
0	3959	36.3141710926	0.109301770717
0	3965	36.423472863317	0.030513555291
0	3971	36.453986418608	0.055083622826
0	3977	36.509070041434	0.18420216091
0	3984	36.693272202344	0.030827047606
0	3989	36.72409924995	0.044869314819
0	3995	36.768968564769	0.024207300433
0	4000	36.793175865202	0.083826018276
0	4005	36.877001883478	0.083741985188
0	4010	36.960743868666	0.081408879542
0	4015	37.042152748208	0.038360625028
0	4020	37.080513373236	0.055342742703
0	4026	37.135856115939	0.034077596891
0	4031	37.16993371283	0.040851646631
0	4037	37.210785359461	0.050793523769
0	4042	37.26157888323	0.071089699916
0	4047	37.332668583146	0.044180064369
0	4052	37.376848647515	0.053937561699
0	4058	37.430786209214	0.004273867139
0	4060	37.435060076353	0.137491027836
0	4069	37.572551104189	0.036040247028
0	4074	37.608591351217	0.069171540459
0	4080	37.677762891676	0.055139207369
0	4086	37.732902099045	0.017286251166
0	4091	37.750188350211	0.011938931543
0	4096	37.762127281754	0.033963477915
0	4101	37.796090759669	0.04500038925
0	4106	37.841091148919	0.110057043568
0	4112	37.951148192487	0.08263256558
0	4118	38.033780758067	0.046972419732
0	4123	38.080753177799	0.371332385402
0	4130	38.452085563201	0.025509059946
0	4135	38.477594623147	0.034907415015
0	4141	38.512502038162	0.025339303061
0	4146	38.537841341223	0.045739939064
0	4152	38.583581280287	0.026602540337
0	4158	38.610183820624	0.014121210734
0	4163	38.624305031358	0.045038340562
0	4168	38.66934337192	0.043445805401
0	4174	38.712789177321	0.052031350993
0	4179	38.764820528314	0.000584724142
0	4181	38.765405252456	0.015318096428
0	4186	38.780723348884	0.013384629826
0	4194	38.79410797871	0.010209175212
0	4199	38.804317153922	0.015412908563
0	4204	38.819730062485	0.039782790436
0	4209	38.859512852921	0.019761262638
0	4214	38.879274115559	0.004857872191
0	4216	38.88413198775	0.015717107024
0	4224	38.899849094774	0.008431334568
0	4229	38.908280429342	0.025569752424
0	4234	38.933850181766	0.065058093566
0	4240	38.998908275332	0.013907034786
0	4245	39.012815310118	0.00866129987
0	4250	39.021476609988	0.040313524568
0	4256	39.061790134556	0.115080576422
0	4263	39.176870710978	0.043000782977
0	4268	39.219871493955	0.010559213687
0	4273	39.230430707642	0.018449640994
0	4278	39.248880348636	0.005295500534
0	4280	39.25417584917	0.036324609495
0	4288	39.290500458665	0.044478642217
0	4293	39.334979100882	0.009459304066
0	4298	39.344438404948	0.004860973721
0	4300	39.349299378669	0.031913448561
0	4308	39.38121282723	0.16372672276
0	4315	39.54493954999	0.023590435404
0	4320	39.568529985394	0.105996737548
0	4325	39.674526722942	0.027647925756
0	4330	39.702174648698	0.04842361597
0	4337	39.750598264668	0.055634939155
0	4342	39.806233203823	0.168406925249
0	4350	39.974640129072	0.121180721233
0	4355	40.095820850305	0.033571437765
0	4360	40.12939228807	0.1675113263
0	4365	40.29690361437	0.016236163442
0	4370	40.313139777812	0.029786675832
0	4375	40.342926453644	0.127405226072
0	4382	40.470331679716	0.072409265732
0	4389	40.542740945448	0.026406879804
0	4395	40.569147825252	0.070258677657
0	4401	40.639406502909	0.116153396741
0	4408	40.75555989965	0.074217873842
0	4413	40.829777773492	0.028466060767
0	4418	40.858243834259	0.0638585096
0	4423	40.922102343859	0.018477561394
0	4428	40.940579905253	0.040904042159
0	4433	40.981483947412	0.012357869702
0	4438	40.993841817114	0.048938018985
0	4443	41.042779836099	0.045714432596
0	4448	41.088494268695	0.023489408748
0	4454	41.111983677443	0.028383276111
0	4459	41.140366953554	0.019948122864
0	4464	41.160315076418	0.003343227536
0	4466	41.163658303954	0.040784275468
0	4474	41.204442579422	0.005294327369
0	4476	41.209736906791	0.117408806398
0	4485	41.327145713189	0.052087460846
0	4490	41.379233174035	0.082486810385
0	4495	41.46171998442	0.081377810707
0	4500	41.543097795127	0.077881938368
0	4506	41.620979733495	0.003120274107
0	4508	41.624100007602	0.047419837594
0	4516	41.671519845196	0.015295453789
0	4521	41.686815298985	0.013029109412
0	4526	41.699844408397	0.016084003484
0	4531	41.715928411881	0.020826780593
0	4536	41.736755192474	0.019425993455
0	4541	41.756181185929	0.010553334118
0	4546	41.766734520047	0.19428418902
0	4552	41.961018709067	0.010043212145
0	4557	41.971061921212	0.124989050852
0	4562	42.096050972064	0.017705278194
0	4567	42.113756250258	0.069262106462
0	4572	42.18301835672	0.002609263599
0	4574	42.185627620319	0.04023898864
0	4582	42.225866608959	0.035355052081
0	4587	42.26122166104	0.022632218741
0	4593	42.283853879781	0.038935369909
0	4598	42.32278924969	0.062557002815
0	4604	42.385346252505	0.062413917832
0	4609	42.447760170337	0.020721475287
0	4614	42.468481645624	0.019275638364
0	4619	42.487757283988	0.017060434333
0	4625	42.504817718321	0.047788540418
0	4632	42.552606258739	0.002185069696
0	4634	42.554791328435	0.001282345655
0	4636	42.55607367409	0.034814358513
0	4648	42.590888032603	0.210912141067
0	4653	42.80180017367	0.054164986107
0	4658	42.855965159777	0.000528382406
0	4660	42.856493542183	0.016926005047
0	4668	42.87341954723	0.103013190691
0	4673	42.976432737921	0.003454597362
0	4675	42.979887335283	0.066261434604
0	4683	43.046148769887	0.003292714024
0	4685	43.049441483911	0.110375898627
0	4694	43.159817382538	0.003934096395
0	4697	43.163751478933	0.004705457815
0	4702	43.168456936748	0.013294925164
0	4708	43.181751861912	0.002484596853
0	4713	43.184236458765	0.032839156059
0	4722	43.217075614824	0.028462177291
0	4727	43.245537792115	0.000903055546
0	4729	43.246440847661	0.00276117221
0	4731	43.249202019871	0.050632506694
0	4742	43.299834526565	0.090346517225
0	4748	43.39018104379	0.113306411284
0	4754	43.503487455074	0.086355409485
0	4759	43.589842864559	0.006937438109
0	4761	43.596780302668	0.022269711774
0	4769	43.619050014442	0.054085378316
0	4774	43.673135392758	0.103695324356
0	4779	43.776830717114	0.06211362086
0	4785	43.838944337974	0.004008543707
0	4787	43.842952881681	0.043169356838
0	4795	43.886122238519	0.032559125217
0	4803	43.918681363736	9.9303936e-05
0	4805	43.918780667672	0.023978702334
0	4813	43.942759370006	0.015478619718
0	4819	43.958237989724	0.014228727203
0	4824	43.972466716927	0.025028400767
0	4830	43.997495117694	0.001763346218
0	4832	43.999258463912	0.177866657937
0	4840	44.177125121849	0.065490694501
0	4845	44.24261581635	0.009186943023
0	4850	44.251802759373	0.089665118281
0	4856	44.341467877654	0.003969548664
0	4858	44.345437426318	0.063782689476
0	4867	44.409220115794	0.089640120483
0	4872	44.498860236277	0.058009572632
0	4877	44.556869808909	0.00154735901
0	4879	44.558417167919	0.038415820444
0	4887	44.596832988363	0.042283181021
0	4892	44.639116169384	0.076062026204
0	4899	44.715178195588	0.096358159253
0	4905	44.811536354841	0.00571106774
0	4907	44.817247422581	0.016207942525
0	4915	44.833455365106	0.055250805689
0	4920	44.888706170795	0.005428395507
0	4922	44.894134566302	0.060446447167
0	4932	44.954581013469	0.024622750515
0	4937	44.979203763984	0.066335689264
0	4944	45.045539453248	0.053957480699
0	4949	45.099496933947	0.057499415869
0	4954	45.156996349816	0.065427649493
0	4960	45.222423999309	0.003152814924
0	4962	45.225576814233	0.051183111192
0	4970	45.276759925425	0.001288632218
0	4972	45.278048557643	0.020996608773
0	4980	45.299045166416	0.07865615506
0	4986	45.377701321476	0.051803427041
0	4991	45.429504748517	0.021491100551
0	4997	45.450995849068	0.0121552196
0	5002	45.463151068668	0.000818455446
0	5004	45.463969524114	0.014396074025
0	5009	45.478365598139	0.002513085832
0	5015	45.480878683971	0.036304233196
0	5023	45.517182917167	0.003275225887
0	5025	45.520458143054	0.033835238559
0	5033	45.554293381613	0.020169348772
0	5038	45.574462730385	0.122798645697
0	5043	45.697261376082	0.002547305456
0	5045	45.699808681538	0.117929948263
0	5055	45.817738629801	0.030355152786
0	5060	45.848093782587	0.144397151623
0	5067	45.99249093421	0.015316097915
0	5072	46.007807032125	0.017522801382
0	5077	46.025329833507	0.04023321679
0	5082	46.065563050297	0.00587859684
0	5084	46.071441647137	0.07434676353
0	5092	46.145788410667	0.042029134676
0	5098	46.187817545343	0.01205616229
0	5103	46.199873707633	0.07237180044
0	5108	46.272245508073	0.04847885009
0	5113	46.320724358163	0.033255339202
0	5118	46.353979697365	0.095697168192
0	5123	46.449676865557	0.007589267925
0	5125	46.457266133482	0.107615534357
0	5133	46.564881667839	0.06843303129
0	5138	46.633314699129	0.022512695474
0	5143	46.655827394603	0.042062356961
0	5148	46.697889751564	0.016611424242
0	5153	46.714501175806	0.029681908557
0	5158	46.744183084363	0.023098174573
0	5163	46.767281258936	0.022330109032
0	5168	46.789611367968	0.059049417781
0	5173	46.848660785749	0.134830745309
0	5178	46.983491531058	0.010734684139
0	5183	46.994226215197	0.004861845705
0	5185	46.999088060902	0.051483667148
0	5194	47.05057172805	0.017913122233
0	5199	47.068484850283	0.028475115767
0	5204	47.09695996605	0.087077172922
0	5212	47.184037138972	0.019403921077
0	5217	47.203441060049	0.007787768058
0	5219	47.211228828107	0.037583058292
0	5227	47.248811886399	0.147469150462
0	5232	47.396281036861	0.126685009137
0	5239	47.522966045998	0.086122133961
0	5244	47.609088179959	0.003629161752
0	5246	47.612717341711	0.201244079383
0	5257	47.813961421094	0.009261666473
0	5262	47.823223087567	0.03113646573
0	5267	47.854359553297	0.083818843657
0	5273	47.938178396954	0.092887908434
0	5278	48.031066305388	0.014062231915
0	5284	48.045128537303	0.114298226138
0	5289	48.159426763441	0.120509029745
0	5298	48.279935793186	0.002738858031
0	5300	48.282674651217	0.057879283424
0	5308	48.340553934641	0.065353453943
0	5313	48.405907388584	0.063739040584
0	5318	48.469646429168	0.005131296576
0	5320	48.474777725744	0.066996517703
0	5328	48.541774243447	0.259246893482
0	5336	48.801021136929	0.014657895944
0	5341	48.815679032873	0.018920864458
0	5346	48.834599897331	0.002074170965
0	5348	48.836674068296	0.036985341484
0	5356	48.87365940978	0.004294357401
0	5358	48.877953767181	0.014471403085
0	5366	48.892425170266	0.076905168572
0	5371	48.969330338838	0.023922435187
0	5376	48.993252774025	0.041612601199
0	5381	49.034865375224	0.005480915957
0	5383	49.040346291181	0.205591527191
0	5391	49.245937818372	0.05203626408
0	5396	49.297974082452	0.077153974787
0	5401	49.375128057239	0.008841678752
0	5406	49.383969735991	0.028570483341
0	5411	49.412540219332	0.063358574408
0	5417	49.47589879374	0.06471477216
0	5424	49.5406135659	0.056545828623
0	5429	49.597159394523	0.133784331544
0	5437	49.730943726067	0.009898482224
0	5442	49.740842208291	0.009938062987
0	5447	49.750780271278	0.044270876759
0	5452	49.795051148037	0.011997169278
0	5457	49.807048317315	0.047514067617
0	5463	49.854562384932	0.199013565528
0	5470	50.05357595046	0.051300858188
0	5475	50.104876808648	0.009468366344
0	5480	50.114345174992	0.294228033277
0	5487	50.408573208269	0.046406313594
0	5492	50.454979521863	0.011655115763
0	5498	50.466634637626	0.098886634965
0	5505	50.565521272591	0.053463647352
0	5510	50.618984919943	0.156698367968
0	5516	50.775683287911	0.106724595209
0	5521	50.88240788312	0.006924093918
0	5523	50.889331977038	0.007948630425
0	5531	50.897280607463	0.168308945637
0	5538	51.0655895531	0.014894532756
0	5544	51.080484085856	0.032902313842
0	5549	51.113386399698	0.023554002158
0	5554	51.136940401856	0.07440348523
0	5560	51.211343887086	0.040943306395
0	5566	51.252287193481	0.018902691702
0	5571	51.271189885183	0.1005251371
0	5579	51.371715022283	0.151274765714
0	5585	51.522989787997	0.066511053169
0	5590	51.589500841166	0.002261187972
0	5592	51.591762029138	0.013942334423
0	5600	51.605704363561	0.083009031729
0	5605	51.68871339529	0.038845191809
0	5610	51.727558587099	0.086830722786
0	5615	51.814389309885	0.04569871096
0	5621	51.860088020845	0.001331434363
0	5623	51.861419455208	0.043469702897
0	5631	51.904889158105	0.106412069592
0	5636	52.011301227697	0.064221747382
0	5641	52.075522975079	0.007074118396
0	5643	52.082597093475	0.166302837541
0	5654	52.248899931016	0.126355877292
0	5660	52.375255808308	0.139920543456
0	5666	52.515176351764	0.024817767245
0	5671	52.539994119009	0.000819615182
0	5673	52.540813734191	0.025114321544
0	5681	52.565928055735	0.002334938691
0	5683	52.568262994426	0.067968289096
0	5692	52.636231283522	0.006594494659
0	5694	52.642825778181	0.057679659596
0	5702	52.700505437777	0.042385742876
0	5707	52.742891180653	0.033007658448
0	5713	52.775898839101	0.011547097196
0	5718	52.787445936297	0.007491983562
0	5723	52.794937919859	0.032945786118
0	5728	52.827883705977	0.015756338513
0	5733	52.84364004449	0.087723943904
0	5739	52.931363988394	0.009726081759
0	5744	52.941090070153	0.07830777966
0	5749	53.019397849813	0.006334742053
0	5751	53.025732591866	0.020892959299
0	5760	53.046625551165	0.041702866557
0	5765	53.088328417722	0.003228364089
0	5767	53.091556781811	0.014412498303
0	5776	53.105969280114	0.042259568442
0	5781	53.148228848556	0.030152794085
0	5786	53.178381642641	0.082568650451
0	5791	53.260950293092	0.022231575047
0	5796	53.283181868139	0.054961605028
0	5801	53.338143473167	0.107633857489
0	5806	53.445777330656	0.021193519904
0	5811	53.46697085056	0.008859729125
0	5816	53.475830579685	0.003130934814
0	5818	53.478961514499	0.029747518409
0	5826	53.508709032908	0.023288952542
0	5831	53.53199798545	0.020020123822
0	5836	53.552018109272	0.004130954029
0	5838	53.556149063301	0.052630442698
0	5846	53.608779505999	0.11044706465
0	5852	53.719226570649	0.037141038365
0	5857	53.756367609014	0.035348481621
0	5862	53.791716090635	0.047343804791
0	5868	53.839059895426	0.010300722186
0	5873	53.849360617612	0.113835340047
0	5878	53.963195957659	0.003033694821
0	5880	53.96622965248	0.007265282472
0	5885	53.973494934952	0.051438012135
0	5894	54.024932947087	0.019718974176
0	5899	54.044651921263	0.010836101322
0	5904	54.055488022585	0.046068898498
0	5911	54.101556921083	0.095446762947
0	5917	54.19700368403	0.053642229698
0	5922	54.250645913728	0.10602847239
0	5927	54.356674386118	0.019754612476
0	5932	54.376428998594	0.011517609031
0	5937	54.387946607625	0.026019402122
0	5942	54.413966009747	0.004654532285
0	5944	54.418620542032	0.015611852434
0	5952	54.434232394466	0.011654328641
0	5957	54.445886723107	0.073538978121
0	5962	54.519425701228	0.012837481738
0	5968	54.532263182966	0.045295384985
0	5973	54.577558567951	0.052929672565
0	5978	54.630488240516	0.024837152472
0	5983	54.655325392988	0.174810998763
0	5993	54.830136391751	0.18885841427
0	5999	55.018994806021	0.13230087966
0	6005	55.151295685681	0.037233031099
0	6010	55.18852871678	0.040732660505
0	6015	55.229261377285	0.025677173213
0	6020	55.254938550498	0.095135296585
0	6025	55.350073847083	0.045569927966
0	6030	55.395643775049	0.017486743026
0	6036	55.413130518075	0.052617879529
0	6041	55.465748397604	0.03819798711
0	6046	55.503946384714	0.163316993917
0	6053	55.667263378631	0.081226690891
0	6059	55.748490069522	0.036579044992
0	6064	55.785069114514	0.043146692701
0	6070	55.828215807215	0.020181316984
0	6075	55.848397124199	0.026208974106
0	6080	55.874606098305	0.058192606312
0	6085	55.932798704617	0.014308474886
0	6090	55.947107179503	0.062654048047
0	6096	56.00976122755	0.084126203625
0	6101	56.093887431175	0.025046330582
0	6107	56.118933761757	0.090748444946
0	6112	56.209682206703	0.06415797057
0	6119	56.273840177273	0.02378030156
0	6124	56.297620478833	0.04253542626
0	6129	56.340155905093	0.102223782756
0	6134	56.442379687849	0.211288274627
0	6140	56.653667962476	0.046184067502
0	6147	56.699852029978	0.013895294978
0	6152	56.713747324956	0.02306129021
0	6157	56.736808615166	0.002742883964
0	6159	56.73955149913	0.016291833526
0	6167	56.755843332656	0.013741953629
0	6172	56.769585286285	0.036920350502
0	6177	56.806505636787	0.007384181857
0	6182	56.813889818644	0.069482346272
0	6187	56.883372164916	0.011431876227
0	6193	56.894804041143	0.062984606593
0	6198	56.957788647736	0.006017537909
0	6200	56.963806185645	0.109312289071
0	6211	57.073118474716	0.084424274917
0	6216	57.157542749633	0.102597936954
0	6223	57.260140686587	0.021807667565
0	6228	57.281948354152	0.002478553761
0	6230	57.284426907913	0.007889278574
0	6235	57.292316186487	0.117796938791
0	6246	57.410113125278	0.009307211155
0	6251	57.419420336433	0.01768910746
0	6256	57.437109443893	0.20163297495
0	6261	57.638742418843	0.018480279835
0	6266	57.657222698678	0.040524633219
0	6272	57.697747331897	0.119270292719
0	6277	57.817017624616	0.078414822726
0	6283	57.895432447342	0.13471098486
0	6289	58.030143432202	0.037226457054
0	6296	58.067369889256	0.041338440828
0	6301	58.108708330084	0.021698494917
0	6306	58.130406825001	0.071517085448
0	6311	58.201923910449	0.054218314155
0	6316	58.256142224604	0.053422088148
0	6321	58.309564312752	0.145111287465
0	6328	58.454675600217	9.0564498e-05
0	6330	58.454766164715	0.037453424295
0	6339	58.49221958901	0.065946576991
0	6344	58.558166166001	0.037809606417
0	6349	58.595975772418	0.038424414104
0	6354	58.634400186522	0.006687261227
0	6356	58.641087447749	0.022624130476
0	6365	58.663711578225	0.05625802766
0	6371	58.719969605885	0.012903309483
0	6376	58.732872915368	0.039191298046
0	6381	58.772064213414	0.055500526584
0	6386	58.827564739998	0.032752918816
0	6391	58.860317658814	0.043327356214
0	6396	58.903645015028	0.02463346299
0	6401	58.928278478018	0.051069916504
0	6408	58.979348394522	0.067380658222
0	6413	59.046729052744	0.035797047552
0	6418	59.082526100296	0.011615024584
0	6423	59.09414112488	0.043755297212
0	6428	59.137896422092	0.027661784863
0	6433	59.165558206955	0.043456462969
0	6439	59.209014669924	0.0167304382
0	6444	59.225745108124	0.049396952335
0	6449	59.275142060459	0.162491970921
0	6456	59.43763403138	0.004368757416
0	6458	59.442002788796	0.081103976215
0	6467	59.523106765011	0.029661818114
0	6473	59.552768583125	0.027122663591
0	6478	59.579891246716	0.175567332825
0	6485	59.755458579541	0.014558306314
0	6490	59.770016885855	0.040429922682
0	6495	59.810446808537	0.040334591662
0	6500	59.850781400199	0.020193072608
0	6505	59.870974472807	0.004061577237
0	6507	59.875036050044	0.007471214545
0	6512	59.882507264589	0.002962461092
0	6514	59.885469725681	0.004520528513
0	6520	59.889990254194	0.01196031757
0	6528	59.901950571764	0.02528750455
0	6536	59.927238076314	0.280127682117
0	6541	60.207365758431	0.004207324093
0	6543	60.211573082524	0.109322432866
0	6554	60.32089551539	0.028280001538
0	6560	60.349175516928	0.073762469771
0	6565	60.422937986699	0.06575333503
0	6570	60.488691321729	0.013358112985
0	6575	60.502049434714	0.063373187121
0	6580	60.565422621835	0.025709447226
0	6585	60.591132069061	0.008867245763
0	6590	60.599999314824	0.098879515243
0	6595	60.698878830067	0.058605877924
0	6601	60.757484707991	0.093968081479
0	6607	60.85145278947	0.024785571827
0	6612	60.876238361297	0.018691190137
0	6617	60.894929551434	0.004838151025
0	6619	60.899767702459	0.021321666134
0	6627	60.921089368593	0.055675661049
0	6633	60.976765029642	0.054855740825
0	6638	61.031620770467	0.083295430372
0	6644	61.114916200839	0.090169926123
0	6650	61.205086126962	0.007899819106
0	6655	61.212985946068	0.027425532783
0	6660	61.240411478851	0.028583578525
0	6665	61.268995057376	0.030940345109
0	6670	61.299935402485	0.009465371156
0	6675	61.309400773641	0.047687852431
0	6681	61.357088626072	0.044635039537
0	6687	61.401723665609	0.024402188143
0	6693	61.426125853752	0.026276535161
0	6698	61.452402388913	0.202480657708
0	6707	61.654883046621	0.131818445563
0	6713	61.786701492184	0.175230569769
0	6719	61.961932061953	0.056173545739
0	6725	62.018105607692	0.080016175166
0	6730	62.098121782858	0.006231699003
0	6732	62.104353481861	0.108909712225
0	6741	62.213263194086	0.373903004862
0	6747	62.587166198948	0.11823599157
0	6752	62.705402190518	0.027356839473
0	6759	62.732759029991	0.085882787138
0	6766	62.818641817129	0.019358757123
0	6771	62.838000574252	0.025710205682
0	6776	62.863710779934	0.032775590272
0	6782	62.896486370206	0.004034102554
0	6784	62.90052047276	0.018689346689
0	6792	62.919209819449	0.107625584031
0	6797	63.02683540348	0.003711080322
0	6799	63.030546483802	0.000889527491
0	6801	63.031436011293	0.142373017617
0	6813	63.17380902891	0.157927898671
0	6818	63.331736927581	0.057184720244
0	6826	63.388921647825	0.012671555712
0	6833	63.401593203537	0.008785974462
0	6838	63.410379177999	0.00249854205
0	6840	63.412877720049	0.002489227486
0	6843	63.415366947535	0.016655819425
0	6855	63.43202276696	0.011265352668
0	6860	63.443288119628	0.061705199767
0	6865	63.504993319395	0.027849831657
0	6870	63.532843151052	0.051585102011
0	6876	63.584428253063	0.034139278236
0	6881	63.618567531299	0.045803659155
0	6886	63.664371190454	0.066196953885
0	6892	63.730568144339	0.015034438754
0	6897	63.745602583093	0.037611069873
0	6903	63.783213652966	0.005513753642
0	6905	63.788727406608	0.00312378532
0	6910	63.791851191928	0.036459302622
0	6918	63.82831049455	0.018158208556
0	6923	63.846468703106	0.109270384033
0	6928	63.955739087139	0.023048300713
0	6933	63.978787387852	0.029949419701
0	6938	64.008736807553	0.014112022836
0	6943	64.022848830389	0.060769566741
0	6948	64.08361839713	0.035205159221
0	6953	64.118823556351	0.012312159783
0	6958	64.131135716134	0.006642272577
0	6960	64.137777988711	0.027872000577
0	6969	64.165649989288	0.047418238659
0	6974	64.213068227947	0.05486893205
0	6979	64.267937159997	0.023866267202
0	6984	64.291803427199	0.019809558638
0	6989	64.311612985837	0.065797852099
0	6994	64.377410837936	0.095162331797
0	7001	64.472573169733	0.145269165554
0	7007	64.617842335287	0.073230743688
0	7012	64.691073078975	0.03181350177
0	7017	64.722886580745	0.027711673031
0	7023	64.750598253776	0.041536932537
0	7029	64.792135186313	0.038497170589
0	7034	64.830632356902	0.002376382878
0	7036	64.83300873978	0.105137516394
0	7045	64.938146256174	0.054556051674
0	7051	64.992702307848	0.005257880291
0	7053	64.997960188139	0.136820385795
0	7064	65.134780573934	0.013021752354
0	7069	65.147802326288	0.037073001812
0	7074	65.1848753281	0.015265748944
0	7079	65.200141077044	0.012607875487
0	7084	65.212748952531	0.047225815069
0	7090	65.2599747676	0.087693061866
0	7095	65.347667829466	0.051129496622
0	7100	65.398797326088	0.132803554772
0	7106	65.53160088086	0.108285412993
0	7111	65.639886293853	0.088569437249
0	7117	65.728455731102	0.043260276352
0	7122	65.771716007454	0.073010785038
0	7128	65.844726792492	0.009375298191
0	7133	65.854102090683	0.077381627492
0	7139	65.931483718175	0.07726163573
0	7144	66.008745353905	0.044517253918
0	7149	66.053262607823	0.068908524794
0	7155	66.122171132617	0.047387480013
0	7160	66.16955861263	0.001691658311
0	7162	66.171250270941	0.04644571797
0	7171	66.217695988911	0.076300002732
0	7176	66.293995991643	0.129928868031
0	7181	66.423924859674	0.056196304677
0	7186	66.480121164351	0.01906534976
0	7191	66.499186514111	0.084333337869
0	7196	66.58351985198	0.070227622082
0	7201	66.653747474062	0.049207551555
0	7206	66.702955025617	0.004571641345
0	7208	66.707526666962	0.004342647012
0	7213	66.711869313974	0.021813162333
0	7221	66.733682476307	0.177550670271
0	7227	66.911233146578	0.042081779304
0	7232	66.953314925882	0.094371856987
0	7237	67.047686782869	0.041130495267
0	7243	67.088817278136	0.020652895497
0	7248	67.109470173633	0.032072565267
0	7253	67.1415427389	0.000821531985
0	7255	67.142364270885	0.015249394763
0	7263	67.157613665648	0.023356698615
0	7269	67.180970364263	0.002225729185
0	7271	67.183196093448	0.104727177617
0	7281	67.287923271065	0.0098936101
0	7286	67.297816881165	0.004413978803
0	7288	67.302230859968	0.005794380521
0	7293	67.308025240489	0.019121761308
0	7301	67.327147001797	0.006738344379
0	7303	67.333885346176	0.019724225607
0	7311	67.353609571783	0.008209964341
0	7316	67.361819536124	0.001161072738
0	7318	67.362980608862	0.083572495931
0	7326	67.446553104793	0.008469164512
0	7331	67.455022269305	0.008437714167
0	7336	67.463459983472	0.006044042952
0	7338	67.469504026424	0.126776887784
0	7346	67.596280914208	0.105580050017
0	7351	67.701860964225	0.067692857712
0	7356	67.769553821937	0.036871149195
0	7362	67.806424971132	0.092432423486
0	7368	67.898857394618	0.025711005871
0	7374	67.924568400489	0.084599203173
0	7380	68.009167603662	0.031475370218
0	7385	68.04064297388	0.019598108737
0	7390	68.060241082617	0.027034526527
0	7396	68.087275609144	0.016805361221
0	7401	68.104080970365	0.018907344701
0	7406	68.122988315066	0.068505638906
0	7412	68.191493953972	0.037002230924
0	7417	68.228496184896	0.128506376178
0	7425	68.357002561074	0.013912940889
0	7430	68.370915501963	0.004101610838
0	7432	68.375017112801	0.051281985655
0	7440	68.426299098456	0.041048400929
0	7445	68.467347499385	0.181954105988
0	7452	68.649301605373	0.027719074534
0	7457	68.677020679907	0.027799665556
0	7462	68.704820345463	0.101009390876
0	7467	68.805829736339	0.054931095534
0	7472	68.860760831873	0.066724331262
0	7477	68.927485163135	0.036907922862
0	7483	68.964393085997	0.085226959512
0	7488	69.049620045509	0.01068763632
0	7493	69.060307681829	0.085081526034
0	7498	69.145389207863	0.032177037732
0	7503	69.177566245595	0.003059364533
0	7505	69.180625610128	0.002886304864
0	7507	69.183511914992	0.030597279537
0	7518	69.214109194529	0.144432439866
0	7525	69.358541634395	0.063549510959
0	7531	69.422091145354	0.072413007221
0	7537	69.494504152575	0.081198993036
0	7543	69.575703145611	0.002411483574
0	7545	69.578114629185	0.104456279704
0	7556	69.682570908889	0.038480701755
0	7561	69.721051610644	0.129547610573
0	7566	69.850599221217	0.047512373381
0	7571	69.898111594598	0.035882490946
0	7577	69.933994085544	0.004371790129
0	7579	69.938365875673	0.059433448759
0	7588	69.997799324432	0.014794549416
0	7593	70.012593873848	0.002038552359
0	7595	70.014632426207	0.037271886334
0	7603	70.051904312541	0.041901887077
0	7608	70.093806199618	0.110329745804
0	7613	70.204135945422	0.008717449258
0	7618	70.21285339468	0.058757322947
0	7623	70.271610717627	0.062409056426
0	7628	70.334019774053	0.185478765096
0	7633	70.519498539149	0.003221921119
0	7635	70.522720460268	0.1461163737
0	7644	70.668836833968	0.042520096706
0	7649	70.711356930674	0.051679330182
0	7654	70.763036260856	0.088138090224
0	7660	70.85117435108	0.080678109226
0	7665	70.931852460306	0.040730798521
0	7670	70.972583258827	0.161092952026
0	7676	71.133676210853	0.02807374148
0	7681	71.161749952333	0.012239117972
0	7686	71.173989070305	0.012618309551
0	7691	71.186607379856	0.007513121543
0	7693	71.194120501399	0.028804848136
0	7702	71.222925349535	0.110712153416
0	7710	71.333637502951	0.020566796315
0	7715	71.354204299266	0.024258550808
0	7720	71.378462850074	0.064989752921
0	7725	71.443452602995	0.017465078854
0	7730	71.460917681849	0.007579765936
0	7733	71.468497447785	0.043138108132
0	7742	71.511635555917	0.038668061771
0	7747	71.550303617688	0.054431553348
0	7752	71.604735171036	0.036316520986
0	7757	71.641051692022	0.036792462947
0	7762	71.677844154969	0.009983765999
0	7767	71.687827920968	0.032924948059
0	7772	71.720752869027	0.035744014287
0	7778	71.756496883314	0.051227381219
0	7783	71.807724264533	0.005165044838
0	7785	71.812889309371	0.007748983217
0	7790	71.820638292588	0.006686041334
0	7795	71.827324333922	0.04639062627
0	7804	71.873714960192	0.070377064887
0	7811	71.944092025079	0.163857810953
0	7819	72.107949836032	0.019594766083
0	7824	72.127544602115	0.020072405226
0	7829	72.147617007341	0.007800937995
0	7831	72.155417945336	0.129758266007
0	7840	72.285176211343	0.009226684459
0	7845	72.294402895802	0.034892886226
0	7850	72.329295782028	0.086675134668
0	7855	72.415970916696	0.003592325945
0	7857	72.419563242641	0.106074161726
0	7865	72.525637404367	0.201895387173
0	7870	72.72753279154	0.103289055347
0	7875	72.830821846887	0.040821611203
0	7880	72.87164345809	0.002104794518
0	7882	72.873748252608	0.045329271544
0	7891	72.919077524152	0.172315853272
0	7897	73.091393377424	0.044728663169
0	7902	73.136122040593	0.004932123517
0	7904	73.14105416411	0.026573399075
0	7912	73.167627563185	0.135971478437
0	7918	73.303599041622	0.026252878937
0	7923	73.329851920559	0.022960658946
0	7928	73.352812579505	0.076476493964
0	7933	73.429289073469	0.049835236713
0	7938	73.479124310182	0.045787412355
0	7944	73.524911722537	0.040024124105
0	7949	73.564935846642	0.011290599434
0	7954	73.576226446076	0.019516171405
0	7959	73.595742617481	0.049471112473
0	7964	73.645213729954	0.022063320392
0	7969	73.667277050346	0.051251033802
0	7974	73.718528084148	0.124849567721
0	7979	73.843377651869	0.068705520745
0	7984	73.912083172614	0.120396524986
0	7990	74.0324796976	0.004689371888
0	7992	74.037169069488	0.011461190349
0	8000	74.048630259837	0.2728944204
0	8006	74.321524680237	0.039975814944
0	8011	74.361500495181	0.051166632444
0	8016	74.412667127625	0.030661999296
0	8021	74.443329126921	0.143426722872
0	8028	74.586755849793	0.010687934586
0	8033	74.597443784379	0.004042363087
0	8035	74.601486147466	0.002464170896
0	8037	74.603950318362	0.011742278871
0	8045	74.615692597233	0.083168479919
0	8053	74.698861077152	0.033392198386
0	8058	74.732253275538	0.049610852296
0	8063	74.781864127834	0.094871758029
0	8068	74.876735885863	0.044967154656
0	8073	74.921703040519	0.014999929067
0	8078	74.936702969586	0.084140809199
0	8084	75.020843778785	0.035505244327
0	8089	75.056349023112	0.005363735653
0	8091	75.061712758765	0.017155491584
0	8099	75.078868250349	0.076841356734
0	8105	75.155709607083	0.120868942455
0	8111	75.276578549538	0.236758252877
0	8117	75.513336802415	0.016644511429
0	8122	75.529981313844	0.008382014234
0	8127	75.538363328078	0.077237982668
0	8132	75.615601310746	0.086026184132
0	8137	75.701627494878	0.038901024676
0	8142	75.740528519554	0.013385385797
0	8147	75.753913905351	0.043881249738
0	8152	75.797795155089	0.003540989299
0	8154	75.801336144388	0.072785431275
0	8162	75.874121575663	0.010985316655
0	8167	75.885106892318	0.028628147121
0	8172	75.913735039439	0.001781690488
0	8174	75.915516729927	0.054107168656
0	8182	75.969623898583	0.037095508403
0	8187	76.006719406986	0.038438811413
0	8192	76.045158218399	0.120596932862
0	8198	76.165755151261	0.009413542813
0	8203	76.175168694074	0.20988899
0	8211	76.385057684074	0.115076808611
0	8216	76.500134492685	0.00981189316
0	8221	76.509946385845	0.028197957175
0	8228	76.53814434302	0.045726883273
0	8233	76.583871226293	0.013362442847
0	8238	76.59723366914	0.070046814997
0	8243	76.667280484137	0.005802289216
0	8245	76.673082773353	0.154090594693
0	8255	76.827173368046	0.081410899105
0	8260	76.908584267151	0.061180819885
0	8265	76.969765087036	0.019444809015
0	8271	76.989209896051	0.024534985015
0	8276	77.013744881066	0.118516649258
0	8282	77.132261530324	0.032772258067
0	8287	77.165033788391	0.028544686178
0	8292	77.193578474569	0.003479586247
0	8294	77.197058060816	0.021972611718
0	8303	77.219030672534	0.045460284797
0	8308	77.264490957331	0.088883006609
0	8314	77.35337396394	0.100527042428
0	8319	77.453901006368	0.146339064723
0	8325	77.600240071091	0.048591225125
0	8331	77.648831296216	0.026836905899
0	8336	77.675668202115	0.022773296003
0	8341	77.698441498118	0.003273578789
0	8343	77.701715076907	0.036471478027
0	8351	77.738186554934	0.195798934132
0	8358	77.933985489066	0.170783716928
0	8364	78.104769205994	0.084695314057
0	8369	78.189464520051	0.037624147924
0	8374	78.227088667975	0.048264432298
0	8379	78.275353100273	0.021313224831
0	8384	78.296666325104	0.005919904023
0	8386	78.302586229127	0.025353448059
0	8395	78.327939677186	0.037384677953
0	8400	78.365324355139	0.018624690433
0	8405	78.383949045572	0.11797029361
0	8412	78.501919339182	0.082827425822
0	8417	78.584746765004	0.01581959076
0	8422	78.600566355764	0.003735948904
0	8424	78.604302304668	0.049117844711
0	8432	78.653420149379	0.055293674305
0	8437	78.708713823684	0.006262856738
0	8439	78.714976680422	0.013775614199
0	8447	78.728752294621	0.043130558332
0	8453	78.771882852953	0.011492907474
0	8458	78.783375760427	0.019328174517
0	8463	78.802703934944	0.024073718148
0	8468	78.826777653092	0.109308914066
0	8475	78.936086567158	0.016896036316
0	8480	78.952982603474	0.045831247266
0	8485	78.99881385074	0.004192494991
0	8487	79.003006345731	0.034454395289
0	8496	79.03746074102	0.110186000453
0	8501	79.147646741473	0.00287921157
0	8503	79.150525953043	0.002333437192
0	8505	79.152859390235	0.056174428808
0	8516	79.209033819043	0.014203773223
0	8521	79.223237592266	0.009443868872
0	8526	79.232681461138	0.088042406232
0	8531	79.32072386737	0.022110285926
0	8536	79.342834153296	0.035579316171
0	8541	79.378413469467	0.014798102856
0	8546	79.393211572323	0.122187987683
0	8554	79.515399560006	0.135419147769
0	8560	79.650818707775	0.077800560763
0	8567	79.728619268538	0.004131209531
0	8569	79.732750478069	0.084256550234
0	8577	79.817007028303	0.039313964421
0	8582	79.856320992724	0.019517324154
0	8587	79.875838316878	0.092024533542
0	8592	79.96786285042	0.159876410587
0	8599	80.127739261007	0.053366023006
0	8604	80.181105284013	0.150588627239
0	8610	80.331693911252	0.072504980933
0	8615	80.404198892185	0.010845215544
0	8621	80.415044107729	0.069759383751
0	8626	80.48480349148	0.033413883461
0	8632	80.518217374941	0.078699049996
0	8639	80.596916424937	0.025994183383
0	8644	80.62291060832	0.07305953351
0	8650	80.69597014183	0.000178909621
0	8652	80.696149051451	0.098922569199
0	8660	80.79507162065	0.064525411623
0	8665	80.859597032273	0.154221490355
0	8671	81.013818522628	0.060038921062
0	8676	81.07385744369	0.017380426128
0	8682	81.091237869818	0.071283827129
0	8687	81.162521696947	0.07040720524
0	8692	81.232928902187	0.031080069498
0	8697	81.264008971685	0.048103619348
0	8703	81.312112591033	0.061270464841
0	8709	81.373383055874	0.118239590981
0	8714	81.491622646855	0.151621975966
0	8722	81.643244622821	0.001580328252
0	8724	81.644824951073	0.050007634098
0	8732	81.694832585171	0.001555244027
0	8734	81.696387829198	0.026689124803
0	8743	81.723076954001	0.006484123627
0	8745	81.729561077628	0.095445855825
0	8753	81.825006933453	0.043647392704
0	8758	81.868654326157	0.047629114741
0	8763	81.916283440898	0.022252625419
0	8768	81.938536066317	0.085770675001
0	8774	82.024306741318	0.06130826634
0	8779	82.085615007658	0.020196193989
0	8785	82.105811201647	0.122449155581
0	8790	82.228260357228	0.022214615596
0	8796	82.250474972824	0.049107479491
0	8801	82.299582452315	0.074184075924
0	8807	82.373766528239	0.020395218262
0	8812	82.394161746501	0.040382177394
0	8817	82.434543923895	0.190371802906
0	8823	82.624915726801	0.093815488804
0	8828	82.718731215605	0.013680968267
0	8833	82.732412183872	0.020363282393
0	8838	82.752775466265	0.003196924369
0	8840	82.755972390634	0.011462228969
0	8845	82.767434619603	0.038430885288
0	8853	82.805865504891	0.07544771205
0	8859	82.881313216941	0.055180926309
0	8864	82.93649414325	0.020571270052
0	8869	82.957065413302	0.007823704252
0	8871	82.964889117554	0.005549462603
0	8876	82.970438580157	0.009798395711
0	8881	82.980236975868	0.04635055648
0	8889	83.026587532348	0.020398911819
0	8894	83.046986444167	0.136156872056
0	8899	83.183143316223	0.056144874195
0	8904	83.239288190418	0.030521859541
0	8909	83.269810049959	0.033516488159
0	8914	83.303326538118	0.007439516612
0	8916	83.31076605473	0.043732257437
0	8924	83.354498312167	0.009101513643
0	8929	83.36359982581	0.039440245377
0	8934	83.403040071187	0.009281899259
0	8939	83.412321970446	0.007582818819
0	8941	83.419904789265	0.004422135452
0	8946	83.424326924717	0.106126007103
0	8954	83.53045293182	0.010423094615
0	8959	83.540876026435	0.03220473456
0	8964	83.573080760995	0.023874196388
0	8970	83.596954957383	0.012087164909
0	8975	83.609042122292	0.06296066594
0	8980	83.672002788232	0.054013098732
0	8985	83.726015886964	0.09804847203
0	8991	83.824064358994	0.069214517412
0	8998	83.893278876406	0.121114003755
0	9004	84.014392880161	0.023370196489
0	9009	84.03776307665	0.00053315625
0	9011	84.0382962329	0.010602545076
0	9016	84.048898777976	0.105246105058
0	9025	84.154144883034	0.044557023675
0	9031	84.198701906709	0.010056633614
0	9036	84.208758540323	0.102437350178
0	9042	84.311195890501	0.089926462855
0	9047	84.401122353356	0.016675685455
0	9052	84.417798038811	0.069226650124
0	9057	84.487024688935	0.084625551359
0	9062	84.571650240294	0.016136163808
0	9067	84.587786404102	0.042403924127
0	9072	84.630190328229	0.074769944449
0	9078	84.704960272678	0.081164568247
0	9084	84.786124840925	0.034809800204
0	9089	84.820934641129	0.024713686714
0	9094	84.845648327843	0.04323320837
0	9100	84.888881536213	0.080249814876
0	9107	84.969131351089	0.02926810342
0	9112	84.998399454509	0.078957618144
0	9117	85.077357072653	0.021846367508
0	9122	85.099203440161	0.019575526364
0	9127	85.118778966525	0.043426815979
0	9133	85.162205782504	0.056483198645
0	9138	85.218688981149	0.011991491228
0	9143	85.230680472377	0.005902475343
0	9145	85.23658294772	0.01474890527
0	9153	85.25133185299	0.145096180809
0	9158	85.396428033799	0.036897826392
0	9163	85.433325860191	0.008571189912
0	9168	85.441897050103	0.056823363902
0	9175	85.498720414005	0.05799205469
0	9181	85.556712468695	0.022239010896
0	9186	85.578951479591	0.043811186098
0	9192	85.622762665689	0.03145560286
0	9197	85.654218268549	0.037708870088
0	9202	85.691927138637	0.080550473951
0	9207	85.772477612588	0.104749302347
0	9214	85.877226914935	0.000576940967
0	9216	85.877803855902	0.000236460318
0	9218	85.87804031622	0.00851495335
0	9223	85.88655526957	0.123029456426
0	9234	86.009584725996	0.131028782348
0	9239	86.140613508344	0.062739748448
0	9247	86.203353256792	0.01406043824
0	9253	86.217413695032	0.111559197333
0	9260	86.328972892365	0.015418729766
0	9265	86.344391622131	0.044546944047
0	9270	86.388938566178	0.035243186271
0	9275	86.424181752449	0.035283715952
0	9281	86.459465468401	0.117341071628
0	9286	86.576806540029	0.033786942525
0	9291	86.610593482554	0.022465539734
0	9296	86.633059022288	0.029457017332
0	9302	86.66251603962	0.05312305741
0	9307	86.71563909703	0.042362916466
0	9312	86.758002013496	0.044093693086
0	9318	86.802095706582	0.010328489644
0	9323	86.812424196226	0.052992612619
0	9328	86.865416808845	0.198465930441
0	9337	87.063882739286	0.112799993473
0	9345	87.176682732759	0.105240504203
0	9353	87.281923236962	0.02999730227
0	9358	87.311920539232	0.00951747078
0	9363	87.321438010012	0.047288795866
0	9368	87.368726805878	0.096034940441
0	9375	87.464761746319	0.064579746271
0	9380	87.52934149259	0.238844430662
0	9386	87.768185923252	0.073015974119
0	9392	87.841201897371	0.011946069566
0	9397	87.853147966937	0.098576232924
0	9404	87.951724199861	0.017582918993
0	9409	87.969307118854	0.008887215648
0	9414	87.978194334502	0.038379675662
0	9420	88.016574010164	0.033809012977
0	9425	88.050383023141	0.020784511614
0	9430	88.071167534755	0.039366440956
0	9435	88.110533975711	0.068808422044
0	9440	88.179342397755	0.028474923637
0	9445	88.207817321392	0.020113280616
0	9450	88.227930602008	0.067183815146
0	9455	88.295114417154	0.057250997723
0	9461	88.352365414877	0.028281834046
0	9466	88.380647248923	0.055461649706
0	9471	88.436108898629	0.026887141553
0	9476	88.462996040182	0.006908511185
0	9478	88.469904551367	0.067999044014
0	9486	88.537903595381	0.084910427766
0	9493	88.622814023147	0.07902709043
0	9498	88.701841113577	0.022109149534
0	9503	88.723950263111	0.012320160599
0	9508	88.73627042371	0.134595880157
0	9519	88.870866303867	0.009337765713
0	9524	88.88020406958	0.000558374562
0	9526	88.880762444142	0.029161586344
0	9534	88.909924030486	0.090989468876
0	9539	89.000913499362	0.007468540387
0	9544	89.008382039749	0.024473954206
0	9549	89.032855993955	0.192968045699
0	9556	89.225824039654	0.003845151563
0	9558	89.229669191217	0.090847207611
0	9566	89.320516398828	0.091557489113
0	9573	89.412073887941	0.002130777298
0	9575	89.414204665239	0.165283234731
0	9583	89.57948789997	0.069782965306
0	9589	89.649270865276	0.025028822271
0	9594	89.674299687547	0.060339840664
0	9600	89.734639528211	0.069951848676
0	9605	89.804591376887	0.020682224898
0	9610	89.825273601785	0.048190421521
0	9617	89.873464023306	0.027007498745
0	9622	89.900471522051	0.097615721461
0	9629	89.998087243512	0.147850451278
0	9635	90.14593769479	0.017513130234
0	9640	90.163450825024	0.03062666833
0	9645	90.194077493354	0.157566631032
0	9650	90.351644124386	0.069975507988
0	9655	90.421619632374	0.023434379101
0	9660	90.445054011475	0.011279990598
0	9665	90.456334002073	0.070756131406
0	9671	90.527090133479	0.016581728471
0	9678	90.54367186195	0.049646290668
0	9684	90.593318152618	0.068654865225
0	9689	90.661973017843	0.201340654617
0	9698	90.86331367246	0.021492928213
0	9704	90.884806600673	0.032985869719
0	9709	90.917792470392	0.020439918052
0	9714	90.938232388444	0.004268662074
0	9716	90.942501050518	0.038954110371
0	9724	90.981455160889	0.027880997925
0	9729	91.009336158814	0.029031899529
0	9734	91.038368058343	0.018112486531
0	9740	91.056480544874	0.02030377103
0	9745	91.076784315904	0.054028490909
0	9750	91.130812806813	0.001189873257
0	9752	91.13200268007	0.015431410919
0	9760	91.147434090989	0.013494867674
0	9765	91.160928958663	0.0120880318
0	9770	91.173016990463	0.040593080521
0	9775	91.213610070984	0.071933760683
0	9781	91.285543831667	0.050750148221
0	9786	91.336293979888	0.026096293578
0	9791	91.362390273466	0.11300934879
0	9796	91.475399622256	0.003398158891
0	9798	91.478797781147	0.001724069024
0	9800	91.480521850171	0.072604522724
0	9814	91.553126372895	0.045447584281
0	9819	91.598573957176	0.079154179885
0	9825	91.677728137061	0.023159762142
0	9830	91.700887899203	0.110417551235
0	9836	91.811305450438	0.006697433294
0	9838	91.818002883732	0.013380185022
0	9846	91.831383068754	0.05374503983
0	9852	91.885128108584	0.127353171963
0	9860	92.012481280547	0.017532095929
0	9865	92.030013376476	0.194540782419
0	9870	92.224554158895	0.008357929856
0	9875	92.232912088751	0.15315814885
0	9882	92.386070237601	0.066459364129
0	9888	92.45252960173	0.004829916205
0	9890	92.457359517935	0.05579594144
0	9898	92.513155459375	0.050472408483
0	9904	92.563627867858	0.096623085924
0	9909	92.660250953782	0.044056180811
0	9915	92.704307134593	0.060792542339
0	9920	92.765099676932	0.011702600453
0	9925	92.776802277385	0.008737937722
0	9930	92.785540215107	0.008481890484
0	9935	92.794022105591	0.010795919838
0	9940	92.804818025429	0.016569696711
0	9945	92.82138772214	0.003866242922
0	9947	92.825253965062	0.015997405601
0	9955	92.841251370663	0.059363836518
0	9960	92.900615207181	0.016616635118
0	9965	92.917231842299	0.058122392402
0	9970	92.975354234701	0.039838705639
0	9975	93.01519294034	0.106341772362
0	9982	93.121534712702	0.001431227057
0	9984	93.122965939759	0.027830461824
0	9992	93.150796401583	0.255191252961
0	9998	93.405987654544	0.144540968859
0	10004	93.550528623403	0.052691980786
0	10009	93.603220604189	0.116940866063
0	10014	93.720161470252	0.103529558739
0	10019	93.823691028991	0.10210691798
0	10024	93.925797946971	0.017590132966
0	10029	93.943388079937	0.088818447669
0	10036	94.032206527606	0.047239619431
0	10042	94.079446147037	0.124578426662
0	10047	94.204024573699	0.0256664821
0	10052	94.229691055799	0.003671516828
0	10054	94.233362572627	0.03292445411
0	10062	94.266287026737	0.001020113048
0	10064	94.267307139785	0.03643137768
0	10073	94.303738517465	0.028799439898
0	10078	94.332537957363	0.042621581842
0	10083	94.375159539205	0.072640005712
0	10091	94.447799544917	0.110739235615
0	10096	94.558538780532	0.007569586172
0	10102	94.566108366704	0.061055129057
0	10107	94.627163495761	0.004576815179
0	10109	94.63174031094	0.05111499694
0	10118	94.68285530788	0.022592791317
0	10123	94.705448099197	0.120364458936
0	10129	94.825812558133	0.013503657488
0	10135	94.839316215621	0.03898095699
0	10140	94.878297172611	0.043539496781
0	10146	94.921836669392	0.057006181324
0	10151	94.978842850716	0.075388687667
0	10157	95.054231538383	0.083231097256
0	10162	95.137462635639	0.026029275668
0	10167	95.163491911307	0.015837164822
0	10172	95.179329076129	0.060457362547
0	10177	95.239786438676	0.090103838724
0	10182	95.3298902774	0.071985663327
0	10187	95.401875940727	0.060094958555
0	10192	95.461970899282	0.054385638427
0	10197	95.516356537709	0.025583701297
0	10202	95.541940239006	0.011624871957
0	10207	95.553565110963	0.02131838941
0	10212	95.574883500373	0.065149551498
0	10218	95.640033051871	0.022952768806
0	10223	95.662985820677	0.068686785301
0	10228	95.731672605978	0.029419763787
0	10233	95.761092369765	0.065140432558
0	10238	95.826232802323	0.002425041324
0	10240	95.828657843647	0.063610007071
0	10249	95.892267850718	0.014214668078
0	10254	95.906482518796	0.093770630491
0	10259	96.000253149287	0.017304096395
0	10264	96.017557245682	0.082948101124
0	10270	96.100505346806	0.001646930727
0	10272	96.102152277533	0.010854548273
0	10277	96.113006825806	0.014241463289
0	10285	96.127248289095	0.015249021876
0	10290	96.142497310971	0.003846860345
0	10292	96.146344171316	0.030131175914
0	10300	96.17647534723	0.004655612272
0	10302	96.181130959502	0.016166224819
0	10310	96.197297184321	0.142865474778
0	10316	96.340162659099	0.021843853504
0	10321	96.362006512603	0.262155095418
0	10329	96.624161608021	0.061719770549
0	10334	96.68588137857	0.053702397341
0	10340	96.739583775911	0.00620208598
0	10342	96.745785861891	0.060942983003
0	10350	96.806728844894	0.090738537009
0	10356	96.897467381903	0.019101438314
0	10362	96.916568820217	0.019819115123
0	10367	96.93638793534	0.044957973428
0	10372	96.981345908768	0.070702096534
0	10377	97.052048005302	0.069525832807
0	10383	97.121573838109	0.099438148794
0	10389	97.221011986903	0.006045801457
0	10391	97.22705778836	0.109172830988
0	10399	97.336230619348	0.041196975153
0	10404	97.377427594501	0.060375135304
0	10409	97.437802729805	0.005276101291
0	10411	97.443078831096	0.013008093765
0	10419	97.456086924861	0.00973707538
0	10424	97.465824000241	0.018950012806
0	10429	97.484774013047	0.013055527344
0	10434	97.497829540391	0.016256549237
0	10440	97.514086089628	0.067539290714
0	10445	97.581625380342	0.051412584586
0	10451	97.633037964928	0.00535568776
0	10453	97.638393652688	0.033297510661
0	10461	97.671691163349	0.020071784812
0	10466	97.691762948161	0.045518038418
0	10473	97.737280986579	0.069350044515
0	10479	97.806631031094	0.00607953365
0	10481	97.812710564744	0.093636132315
0	10489	97.906346697059	0.029754222548
0	10494	97.936100919607	0.034641571878
0	10499	97.970742491485	0.042649576412
0	10506	98.013392067897	0.04691555906
0	10511	98.060307626957	0.045695928035
0	10516	98.106003554992	0.05034825323
0	10521	98.156351808222	0.029302465158
0	10526	98.18565427338	0.016944220433
0	10531	98.202598493813	0.011433028165
0	10536	98.214031521978	0.000140330825
0	10538	98.214171852803	0.020542108508
0	10546	98.234713961311	0.016675554057
0	10551	98.251389515368	0.024289844886
0	10557	98.275679360254	0.014475461412
0	10562	98.290154821666	0.018454654613
0	10567	98.308609476279	0.013353375933
0	10572	98.321962852212	0.005442983205
0	10574	98.327405835417	0.172367191808
0	10583	98.499773027225	0.009813251192
0	10588	98.509586278417	0.01096683222
0	10593	98.520553110637	0.083786611533
0	10599	98.60433972217	0.017896221348
0	10604	98.622235943518	0.102116557488
0	10609	98.724352501006	0.014268836038
0	10614	98.738621337044	0.190092538382
0	10622	98.928713875426	0.048492634821
0	10627	98.977206510247	0.005021485116
0	10629	98.982227995363	0.034518931726
0	10637	99.016746927089	0.028708829
0	10642	99.045455756089	0.061051760682
0	10647	99.106507516771	0.042441501123
0	10653	99.148949017894	0.023166366509
0	10658	99.172115384403	0.020547375561
0	10663	99.192662759964	0.102814743142
0	10668	99.295477503106	0.085344844394
0	10676	99.3808223475	0.025366465224
0	10681	99.406188812724	0.005381251195
0	10683	99.411570063919	0.050260399912
0	10693	99.461830463831	0.050159796674
0	10699	99.511990260505	0.022707197156
0	10704	99.534697457661	0.062565424056
0	10711	99.597262881717	0.035710812907
0	10718	99.632973694624	0.037461612209
0	10723	99.670435306833	0.031334760609
0	10728	99.701770067442	0.091445945781
0	10734	99.793216013223	0.028715073236
0	10739	99.821931086459	0.13979529668
0	10745	99.961726383139	0.054909880135
0	10750	100.016636263274	0.132445840962
0	10757	100.149082104236	0.044885552395
0	10762	100.193967656631	0.094875760335
0	10768	100.288843416966	0.079146005552
0	10773	100.367989422518	0.072000032285
0	10778	100.439989454803	0.020552543955
0	10783	100.460541998758	0.195448227157
0	10790	100.655990225915	0.165495972397
0	10796	100.821486198312	0.139090454299
0	10803	100.960576652611	0.07812656864
0	10809	101.038703221251	0.031463106842
0	10814	101.070166328093	0.077892072471
0	10820	101.148058400564	0.049710739558
0	10825	101.197769140122	0.055572153459
0	10832	101.253341293581	0.092913340523
0	10837	101.346254634104	0.025741673416
0	10842	101.37199630752	0.067259290175
0	10847	101.439255597695	0.001529886811
0	10849	101.440785484506	0.005029236328
0	10851	101.445814720834	0.018329596173
0	10862	101.464144317007	0.062703799573
0	10867	101.52684811658	0.079995101081
0	10872	101.606843217661	0.056222576633
0	10877	101.663065794294	0.123028159146
0	10884	101.78609395344	0.032581345229
0	10890	101.818675298669	0.098180072617
0	10896	101.916855371286	0.019500070901
0	10901	101.936355442187	0.185977179123
0	10906	102.12233262131	0.157260582052
0	10912	102.279593203362	0.1235009768
0	10918	102.403094180162	0.10016301892
0	10923	102.503257199082	0.124566025991
0	10929	102.627823225073	0.012442997999
0	10934	102.640266223072	0.100243026655
0	10939	102.740509249727	0.009234166067
0	10944	102.749743415794	0.169901398849
0	10949	102.919644814643	0.065975909647
0	10954	102.98562072429	0.128488347524
0	10960	103.114109071814	0.025494586376
0	10965	103.13960365819	0.070956267836
0	10970	103.210559926026	0.016838769364
0	10975	103.22739869539	0.042780708599
0	10980	103.270179403989	0.011169620387
0	10985	103.281349024376	0.017035776485
0	10990	103.298384800861	0.051331946824
0	10995	103.349716747685	0.034389859296
0	11000	103.384106606981	0.092635231214
0	11007	103.476741838195	0.045468046515
0	11013	103.52220988471	0.073969396028
0	11018	103.596179280738	0.02504106122
0	11023	103.621220341958	0.075473430875
0	11028	103.696693772833	0.08030628756
0	11033	103.777000060393	0.003686532184
0	11035	103.780686592577	0.007442480154
0	11040	103.788129072731	0.238339022424
0	11049	104.026468095155	0.126151913626
0	11056	104.152620008781	0.113268422381
0	11061	104.265888431162	0.035961806377
0	11066	104.301850237539	0.01466527862
0	11071	104.316515516159	0.000467846258
0	11073	104.316983362417	0.027274251174
0	11081	104.344257613591	0.033865814645
0	11087	104.378123428236	0.001977298761
0	11089	104.380100726997	0.017236248799
0	11097	104.397336975796	0.053399360902
0	11102	104.450736336698	0.326738571685
0	11111	104.777474908383	0.027417467748
0	11116	104.804892376131	0.05697939524
0	11122	104.861871771371	0.009144012793
0	11128	104.871015784164	0.012360232026
0	11133	104.88337601619	0.041411399779
0	11138	104.924787415969	0.026722957301
0	11143	104.95151037327	0.057171485
0	11149	105.00868185827	0.035017355983
0	11155	105.043699214253	0.012514138963
0	11160	105.056213353216	0.006215354448
0	11162	105.062428707664	0.015656790292
0	11171	105.078085497956	0.013008088208
0	11176	105.091093586164	0.019773777504
0	11181	105.110867363668	0.003133941632
0	11183	105.1140013053	0.08649427426
0	11192	105.20049557956	0.030351557871
0	11198	105.230847137431	0.062623225754
0	11203	105.293470363185	0.08324672461
0	11209	105.376717087795	0.054098118087
0	11214	105.430815205882	0.0283512276
0	11219	105.459166433482	0.04470463265
0	11224	105.503871066132	0.032356371096
0	11230	105.536227437228	0.05756110515
0	11235	105.593788542378	0.013599792914
0	11240	105.607388335292	0.094311294632
0	11247	105.701699629924	0.026250385184
0	11252	105.727950015108	0.013056159836
0	11257	105.741006174944	0.077223270919
0	11263	105.818229445863	0.083587999294
0	11268	105.901817445157	0.036969396901
0	11273	105.938786842058	0.121392688988
0	11278	106.060179531046	0.011461551214
0	11283	106.07164108226	0.098710229946
0	11289	106.170351312206	0.084060844703
0	11294	106.254412156909	0.018572717605
0	11299	106.272984874514	0.011302233972
0	11304	106.284287108486	0.180064912372
0	11311	106.464352020858	0.05322490015
0	11316	106.517576921008	0.089091949051
0	11322	106.606668870059	0.026101060076
0	11327	106.632769930135	0.080502602151
0	11332	106.713272532286	0.033001268847
0	11337	106.746273801133	0.09199651612
0	11344	106.838270317253	0.008308817555
0	11349	106.846579134808	0.139439314629
0	11357	106.986018449437	0.010311118749
0	11362	106.996329568186	0.210530150763
0	11367	107.206859718949	0.042998595358
0	11372	107.249858314307	0.001106314012
0	11374	107.250964628319	0.077792834639
0	11384	107.328757462958	0.003046160333
0	11386	107.331803623291	0.206556256084
0	11399	107.538359879375	0.039828126148
0	11404	107.578188005523	0.016169509812
0	11409	107.594357515335	0.080267424138
0	11414	107.674624939473	0.001454829825
0	11416	107.676079769298	0.068511727663
0	11425	107.744591496961	0.018048808056
0	11430	107.762640305017	0.011418489941
0	11435	107.774058794958	0.023288335197
0	11440	107.797347130155	0.136565580101
0	11448	107.933912710256	0.016172551361
0	11453	107.950085261617	0.053885621082
0	11459	108.003970882699	0.007795553228
0	11464	108.011766435927	0.012164678467
0	11469	108.023931114394	0.053576363971
0	11474	108.077507478365	0.378954913505
0	11483	108.45646239187	0.002396146868
0	11485	108.458858538738	0.127131593989
0	11496	108.585990132727	0.036146334334
0	11502	108.622136467061	0.002979698665
0	11504	108.625116165726	0.134224015313
0	11513	108.759340181039	0.040207569482
0	11518	108.799547750521	0.0133949137
0	11523	108.812942664221	0.007961166157
0	11528	108.820903830378	0.023790514853
0	11533	108.844694345231	0.037771317405
0	11539	108.882465662636	0.015161111468
0	11544	108.897626774104	0.029285979818
0	11549	108.926912753922	0.096814861217
0	11555	109.023727615139	0.003776719379
0	11557	109.027504334518	0.03566679586
0	11565	109.063171130378	0.125725611783
0	11571	109.188896742161	0.072835109407
0	11577	109.261731851568	0.021850834577
0	11582	109.283582686145	0.072090669942
0	11587	109.355673356087	0.011440028234
0	11592	109.367113384321	0.007220004406
0	11594	109.374333388727	0.015778079015
0	11602	109.390111467742	0.019621470472
0	11607	109.409732938214	0.056400926788
0	11613	109.466133865002	0.002801236081
0	11615	109.468935101083	0.00935252593
0	11620	109.478287627013	0.016064183038
0	11628	109.494351810051	0.029117080683
0	11633	109.523468890734	0.019327256655
0	11638	109.542796147389	0.044671192597
0	11643	109.587467339986	0.083396203337
0	11648	109.670863543323	0.040654673588
0	11654	109.711518216911	0.046204497435
0	11660	109.757722714346	0.006516073478
0	11662	109.764238787824	0.028929640539
0	11670	109.793168428363	0.046944214522
0	11675	109.840112642885	0.035064558908
0	11680	109.875177201793	0.019567011335
0	11685	109.894744213128	0.015413424137
0	11690	109.910157637265	0.064511356897
0	11695	109.974668994162	0.020175537318
0	11700	109.99484453148	0.039767866661
0	11705	110.034612398141	0.039226020464
0	11710	110.073838418605	0.002289984337
0	11712	110.076128402942	0.008474190596
0	11717	110.084602593538	0.093583738097
0	11726	110.178186331635	0.030322156015
0	11732	110.20850848765	0.007282266571
0	11734	110.215790754221	0.019144984848
0	11742	110.234935739069	0.007966225161
0	11744	110.24290196423	0.070489816892
0	11752	110.313391781122	0.127338163711
0	11759	110.440729944833	0.068458333986
0	11765	110.509188278819	0.030105576057
0	11770	110.539293854876	0.076361137275
0	11775	110.615654992151	0.191426638041
0	11785	110.807081630192	0.076734810215
0	11791	110.883816440407	0.066874334066
0	11796	110.950690774473	0.018991873727
0	11801	110.9696826482	0.04171335122
0	11806	111.01139599942	0.105756777941
0	11811	111.117152777361	0.053124840097
0	11816	111.170277617458	0.108495295444
0	11821	111.278772912902	0.023606656091
0	11827	111.302379568993	0.058504960633
0	11832	111.360884529626	0.05078225042
0	11838	111.411666780046	0.05886425108
0	11843	111.470531031126	0.038682790955
0	11849	111.509213822081	0.013027178286
0	11854	111.522241000367	0.028628645576
0	11859	111.550869645943	0.026558574293
0	11864	111.577428220236	0.068636473534
0	11869	111.64606469377	0.015845381294
0	11874	111.661910075064	0.037403714949
0	11879	111.699313790013	0.007737997106
0	11881	111.707051787119	0.062525924223
0	11889	111.769577711342	0.039475450083
0	11894	111.809053161425	0.001986345094
0	11896	111.811039506519	0.011175537243
0	11901	111.822215043762	0.003564084154
0	11906	111.825779127916	0.033123718015
0	11914	111.858902845931	0.0111044891
0	11919	111.870007335031	0.002655587418
0	11921	111.872662922449	0.052828231814
0	11929	111.925491154263	0.002844805729
0	11931	111.928335959992	0.067208750596
0	11939	111.995544710588	0.064425230909
0	11944	112.059969941497	0.011750811326
0	11949	112.071720752823	0.01386206207
0	11954	112.085582814893	0.03764981986
0	11959	112.123232634753	0.155151589212
0	11965	112.278384223965	0.056955768921
0	11970	112.335339992886	0.019503754839
0	11975	112.354843747725	0.024258578418
[...]
19	29846	278.760539455577	1.2824141346697
19	29943	280.042953590247	0.24381905246336
19	29973	280.28677264271	6.5916040269883
19	30700	286.878376669698	1.485185796942
19	30842	288.36356246664	0.23535500179808
19	30879	288.598917468438	0.35466625543799
19	30926	288.953583723876	0.0020360741279218
19	30927	288.955619798004	0.13718147197423
19	30930	289.092801269978	0.42478103818294
19	30977	289.517582308161	0.34311634696659
19	30991	289.860698655128	4.5253831593174
19	31495	294.386081814445	0.88742023078096
19	31615	295.273502045226	2.7251745097787
19	31961	297.998676555005	0.89565949757392
19	32048	298.894336052579	0.34068899608205
19	32082	299.235025048661	3.8597723528042
19	32479	303.094797401465	0.79676422016692
19	32563	303.891561621632	2.4059992409466
19	32913	306.297560862579	0.13544234263299
19	32934	306.433003205212	2.1262074647719
19	33121	308.559210669984	0.10582630927135
19	33130	308.665036979255	0.73583029321656
19	33208	309.400867272472	8.0266600425842
19	34071	317.427527315056	3.2428227463219
19	34420	320.670350061378	0.10423880801172
19	34426	320.77458886939	5.9622163215634
19	34986	326.736805190953	1.1721356255259
19	35117	327.908940816479	1.8881621031767
19	35259	329.797102919656	3.13671704387
19	35645	332.933819963526	0.068887688787891
19	35651	333.002707652314	1.038434350422
19	35778	334.041142002736	0.14154016274121
19	35814	334.182682165477	1.3957291180881
19	35937	335.578411283565	0.074915745117452
19	35943	335.653327028682	5.0031529808285
19	36441	340.656480009511	2.8822292596743
19	36815	343.538709269185	1.971065883826
19	37049	345.509775153011	0.84945898953345
19	37153	346.359234142544	1.5712622155851
19	37312	347.930496358129	5.387413909008
19	37821	353.317910267137	1.1172757904328
19	37934	354.43518605757	2.8038414182939
19	38274	357.239027475864	0.043197738989824
19	38275	357.282225214854	3.7400635430968
19	38725	361.022288757951	1.2975737434618
19	38888	362.319862501413	4.1221180637522
19	39315	366.441980565165	2.9731193274152
19	39612	369.41509989258	1.1824780596554
19	39744	370.597577952235	2.5260707907215
19	40081	373.123648742956	0.8644742026718
19	40239	373.988122945628	1.2431266979323
19	40362	375.23124964356	0.89685583848938
19	40455	376.128105482049	0.51106616900005
19	40508	376.639171651049	0.288810265913
19	40547	376.927981916962	2.948144288894
19	40903	379.876126205856	6.4500811929295
19	41615	386.326207398785	2.8077945964634
19	41961	389.134001995248	3.0424509523245
19	42285	392.176452947572	5.7202303642528
19	42873	397.896683311825	0.96751539095844
19	42990	398.864198702783	0.4763371323985
19	43045	399.340535835181	3.8577573667433
20	1588	14.322096664432	1.6860087137364
20	1810	16.008105378168	4.7767061559481
20	2302	20.784811534116	10.739504074069
20	3524	31.524315608185	0.026519940607053
20	3526	31.550835548792	0.46030544337278
20	3553	32.011140992165	1.1526726722462
20	3646	33.163813664411	1.1244356015842
20	3759	34.288249265995	0.34497978639285
20	3785	34.633229052388	0.45935148330881
20	3822	35.092580535697	0.02229028414918
20	3826	35.114870819846	3.0253263541129
20	4129	38.140197173959	0.46080912717092
20	4157	38.60100630113	0.10121949675433
20	4173	38.702225797884	0.33973622976096
20	4255	39.041962027645	2.7639301899333
20	4551	41.805892217578	0.46547730477794
20	4592	42.271369522356	0.24628044992717
20	4630	42.517649972283	0.058884419584629
20	4647	42.576534391868	1.801307204007
20	4866	44.377841595875	3.8282671600847
20	5297	48.20610875596	4.077708909199
20	5659	52.283817665159	0.46339187700079
20	5709	52.74720954216	3.8654834744428
20	6139	56.612693016603	0.041696004981417
20	6142	56.654389021584	4.5154502043655
20	6649	61.16983922595	0.4452949493536
20	6706	61.615134175304	1.1297178618699
20	6764	62.744852037174	0.67490754189425
20	6848	63.419759579068	3.389980920186
20	7226	66.809740499254	5.0495717761269
20	7803	71.859312275381	6.0297919922909
20	8356	77.889104267672	1.637147157959
20	8559	79.526251425631	2.9345002637673
20	8822	82.460751689398	1.6272829227669
20	9024	84.088034612165	3.9195043286595
20	9419	88.007538940824	2.4978792688522
20	9670	90.505418209676	2.0416010298284
20	9903	92.547019239504	7.0627944852609
20	10717	99.609813724765	1.3218749002609
20	10802	100.931688625026	0.2059278385772
20	10819	101.137616463603	2.9233985903249
20	11055	104.061015053928	2.8599671126901
20	11355	106.920982166618	0.98862475662259
20	11446	107.909606923241	0.58055630647563
20	11494	108.490163229717	0.36084104309436
20	11535	108.851004272811	0.8697478709345
20	11659	109.720752143745	1.0217133937903
20	11783	110.742465537535	2.0464067860676
20	12034	112.788872323603	5.1648558070302
20	12483	117.953728130633	3.8284619856506
20	12823	121.782190116284	0.15464721247824
20	12860	121.936837328762	2.2104504371122
20	13053	124.147287765874	2.3566697937748
20	13288	126.503957559649	0.70736754547083
20	13371	127.21132510512	0.13272095187759
20	13387	127.344046056998	2.5329095780897
20	13662	129.876955635088	0.076493418934921
20	13678	129.953449054023	0.0085291358818389
20	13681	129.961978189905	4.1930553975901
20	14091	134.155033587495	6.7572366952704
20	14776	140.912270282765	0.84103146354455
20	14873	141.75330174631	2.8417395710375
20	15198	144.595041317347	4.8587279609652
20	15713	149.453769278312	0.81779043010219
20	15818	150.271559708414	2.1832626730101
20	16025	152.454822381424	1.4421823774202
20	16188	153.897004758844	1.6011126666231
20	16369	155.498117425467	2.1272294062546
20	16584	157.625346831722	5.4738349943509
20	17173	163.099181826073	0.74063721293603
20	17248	163.839819039009	2.022106015148
20	17535	165.861925054157	0.85692220844432
20	17594	166.718847262601	0.0071049875741564
20	17595	166.725952250175	0.075789525311199
20	17601	166.801741775486	9.5072179856465
20	18629	176.308959761133	1.3290289154908
20	18754	177.637988676624	1.2711481365297
20	18910	178.909136813154	0.64114315531899
20	18971	179.550279968473	4.4518781088538
20	19411	184.002158077327	0.25857313956502
20	19443	184.260731216892	0.32896330355466
20	19479	184.589694520447	0.50447997384367
20	19511	185.094174494291	1.0541215660658
20	19627	186.148296060357	0.28695606373634
20	19669	186.435252124093	0.53492581527749
20	19737	186.97017793937	1.4794675056105
20	19896	188.449645444981	1.5358876296747
20	20060	189.985533074656	0.14995858670421
20	20088	190.13549166136	0.69685909785536
20	20162	190.832350759215	0.13407196511348
20	20173	190.966422724328	1.7796449069585
20	20365	192.746067631287	1.3265178156296
20	20490	194.072585446917	1.3114852711139
20	20641	195.384070718031	0.34014867455645
20	20685	195.724219392587	0.64240972780412
20	20769	196.366629120391	6.7733072605305
20	21517	203.139936380922	2.0347263287269
20	21699	205.174662709649	0.039926245317575
20	21705	205.214588954967	1.3637927159571
20	21853	206.578381670924	1.6956666866306
20	22057	208.274048357555	5.863405470554
20	22689	214.137453828109	4.5519802896734
20	23143	218.689434117782	2.0895193635082
20	23364	220.77895348129	4.2638681944941
20	23794	225.042821675784	1.7676270187872
20	23976	226.810448694571	0.67283001911505
20	24058	227.483278713686	1.0507566106763
20	24157	228.534035324362	1.5730352495557
20	24352	230.107070573918	0.42949058164622
20	24388	230.536561155564	0.94818462988865
20	24534	231.484745785453	7.4355208254297
20	25245	238.920266610883	1.2773806805571
20	25363	240.19764729144	3.421404461513
20	25780	243.619051752953	4.5685070066129
20	26299	248.187558759566	0.80782791537102
20	26438	248.995386674937	1.9864137780385
20	26693	250.981800452975	0.48548619419687
20	26730	251.467286647172	1.8657696563242
20	26964	253.333056303496	0.79605999312106
20	27084	254.129116296617	1.1848880671871
20	27193	255.314004363804	0.66503352953701
20	27280	255.979037893341	6.404799097706
20	27980	262.383836991047	4.9312619232265
20	28575	267.315098914274	0.79384955133079
20	28683	268.108948465605	6.7585427804501
20	29451	274.867491246055	1.2083813065105
20	29567	276.075872552565	2.3253880592845
20	29777	278.40126061185	0.79725301985281
20	29893	279.198513631703	1.0640596385479
20	29969	280.262573270251	0.53687108752799
20	30014	280.799444357779	0.61553846016355
20	30087	281.414982817943	0.38379845623564
20	30131	281.798781274179	3.0664139920399
20	30508	284.865195266219	0.52574606738078
20	30560	285.3909413336	2.636488156546
20	30793	288.027429490146	1.6657580117202
20	30984	289.693187501866	0.35289713369429
20	31013	290.04608463556	0.29855161625006
20	31036	290.34463625181	0.57686560795341
20	31105	290.921501859763	4.6624323308358
20	31657	295.583934190599	6.5665855769588
20	32363	302.150519767558	0.46993061259625
20	32445	302.620450380154	12.406491274599
20	33822	315.026941654753	0.77289824805472
20	33905	315.799839902808	2.1712494110078
20	34116	317.971089313816	3.5933024981869
20	34484	321.564391812003	2.6525093672622
20	34784	324.216901179265	1.0888155107855
20	34856	325.305716690051	2.1141347216473
20	35064	327.419851411698	5.5533236535723
20	35646	332.97317506527	1.3201773700166
20	35816	334.293352435287	2.6832446882479
20	36099	336.976597123535	0.86803486565572
20	36189	337.844631989191	0.48589112275309
20	36240	338.330523111944	0.07893410212492
20	36251	338.409457214069	1.3866301813917
20	36366	339.796087395461	0.31804678162537
20	36412	340.114134177086	3.1284569467875
20	36784	343.242591123874	0.19810410374209
20	36805	343.440695227616	3.4625551162524
20	37231	346.903250343868	0.053244542747817
20	37232	346.956494886616	1.1802652241433
20	37315	348.136760110759	1.1196934341084
20	37435	349.256453544867	1.5539693736052
20	37597	350.810422918472	0.15198501332789
20	37603	350.9624079318	1.5033199450123
20	37747	352.465727876812	2.5691653034634
20	38003	355.034893180275	1.8357594986456
20	38226	356.870652678921	5.6226579368395
20	38899	362.49331061576	0.055585273101981
20	38910	362.548895888862	1.0852476037788
20	39039	363.634143492641	0.00026970079608259
20	39040	363.634413193437	4.0792651784965
20	39439	367.713678371933	1.8023177635202
20	39625	369.515996135453	0.53238791110933
20	39684	370.048384046562	0.20220532160226
20	39713	370.250589368164	0.18754492891551
20	39737	370.43813429708	2.1407582806202
20	40022	372.5788925777	0.79979543237964
20	40119	373.37868801008	0.5610862020651
20	40233	373.939774212145	3.2003255636313
20	40605	377.140099775776	0.00060657202766522
20	40606	377.140706347804	1.0879485972629
20	40732	378.228654945067	1.9425896721814
20	40929	380.171244617248	2.0349021300268
20	41154	382.206146747275	2.9490241629743
20	41500	385.155170910249	2.3814371904857
20	41777	387.536608100735	2.6011089563595
20	42082	390.137717057095	2.7286805911865
20	42330	392.866397648281	7.410535237934
21	2055	18.138207427162	0.21639633547661
21	2066	18.354603762639	4.4027080016496
21	2524	22.757311764289	1.0356658899327
21	2614	23.792977654222	3.0467665784194
21	2986	26.839744232641	1.7694289037056
21	3201	28.609173136347	1.6588654372923
21	3347	30.268038573639	0.098475628763323
21	3363	30.366514202402	0.23004980687314
21	3391	30.596564009275	1.4495014628591
21	3561	32.046065472134	4.6838158498422
21	3991	36.729881321976	3.7869020137913
21	4388	40.516783335767	2.6579597986723
21	4704	43.174743134439	0.65751308971866
21	4784	43.832256224158	0.067327916237598
21	4800	43.899584140396	0.0056974972058928
21	4801	43.905281637602	2.2518976350249
21	5097	46.157179272627	2.5622684767612
21	5334	48.719447749388	0.8080736870492
21	5423	49.527521436437	0.1033262030904
21	5434	49.630847639527	0.61333497170405
21	5486	50.244182611231	0.50462665573048
21	5515	50.748809266961	4.0134775265646
21	5991	54.762286793526	0.0088164459790237
21	5992	54.771103239505	0.82616133615821
21	6051	55.597264575663	1.4642449669
21	6210	57.061509542563	1.8963970725893
21	6406	58.957906615152	1.3788044523585
21	6559	60.33671106751	1.6721485390261
21	6724	62.008859606536	1.381344792927
21	6829	63.390204399463	3.6908182183399
21	7242	67.081022617803	2.1887808163077
21	7524	69.269803434111	1.7689823143781
21	7675	71.038785748489	5.1972346898589
21	8208	76.236020438348	0.12801550156816
21	8209	76.364035939916	0.43180612824079
21	8254	76.795842068157	1.5108313970957
21	8391	78.306673465253	0.46188680283949
21	8452	78.768560268092	8.4427545071509
21	9350	87.211314775243	0.47124225835501
21	9385	87.682557033598	1.52859851883
21	9555	89.211155552428	3.0446926320591
21	9881	92.255848184487	1.6891898409212
21	10031	93.945038025408	0.3279151728586
21	10066	94.272953198267	0.28664313500568
21	10098	94.559596333273	4.5635942297028
21	10652	99.123190562976	2.6391546375984
21	10883	101.762345200574	7.6913789967888
21	11612	109.453724197363	1.2083890337974
21	11780	110.66211323116	0.1014783755448
21	11784	110.763591606705	4.7552467179896
21	12291	115.518838324695	0.052231386670194
21	12297	115.571069711365	0.26269094532785
21	12330	115.833760656693	1.7890304548222
21	12454	117.622791111515	0.45904339618436
21	12506	118.081834507699	2.1118838511033
21	12703	120.193718358802	0.86419153228902
21	12773	121.057909891091	2.7801640337804
21	13027	123.838073924871	1.1971047484436
21	13162	125.035178673315	0.10727514854562
21	13169	125.142453821861	0.66104424591795
21	13219	125.803498067779	0.050043017057113
21	13230	125.853541084836	1.4505137224012
21	13377	127.304054807237	0.87714650201913
21	13463	128.181201309256	0.83820373898281
21	13562	129.019405048239	2.7219628434587
21	13836	131.741367891698	5.4643410897607
21	14442	137.205708981459	1.1593287703998
21	14570	138.365037751859	0.58446550603248
21	14609	138.949503257891	0.66549938036919
21	14669	139.61500263826	1.0715700281485
21	14769	140.686572666408	0.76933265845275
21	14845	141.455905324861	0.72446232552761
21	14932	142.180367650389	0.28024320864811
21	14972	142.460610859037	2.5368535663201
21	15234	144.997464425357	0.17507521555727
21	15262	145.172539640914	0.12234973126538
21	15274	145.294889372179	1.27801389008
21	15432	146.572903262259	0.47688068113227
21	15482	147.049783943391	1.8344661159664
21	15664	148.884250059357	1.2110592388585
21	15794	150.095309298216	0.30867798028556
21	15834	150.403987278502	6.3257080995898
21	16489	156.729695378092	1.1116114090385
21	16593	157.841306787131	0.37066942577125
21	16639	158.211976212902	0.52486945371556
21	16685	158.736845666618	0.25184961248075
21	16711	158.988695279099	1.4591991529377
21	16878	160.447894432037	0.81404997412254
21	16979	161.26194440616	1.6362906745621
21	17145	162.898235080722	0.78544199776296
21	17216	163.683677078485	7.8081605042927
21	18116	171.491837582778	1.8437374093581
21	18321	173.335574992136	0.86479688430757
21	18405	174.200371876444	4.1895601043503
21	18856	178.389931980794	1.2898068297791
21	18984	179.679738810573	0.65983700298458
21	19049	180.339575813558	1.4168747207392
21	19199	181.756450534297	0.15580969274721
21	19219	181.912260227044	0.053419030177328
21	19220	181.965679257221	2.2942727892961
21	19440	184.259952046517	0.25441536586467
21	19473	184.514367412382	0.9983938658683
21	19546	185.51276127825	3.2952615530712
21	19945	188.808022831321	0.60052337271511
21	20000	189.408546204036	0.19447907019198
21	20027	189.603025274228	3.3468381090792
21	20388	192.949863383307	0.83178268368122
21	20463	193.781646066988	0.52992769596109
21	20522	194.311573762949	1.3196245768366
21	20673	195.631198339786	0.96023641424447
21	20798	196.59143475403	3.2262167315329
21	21150	199.817651485563	1.3544661942451
21	21306	201.172117679808	0.55302751950082
21	21346	201.725145199309	1.5316319196223
21	21540	203.256777118931	0.4894686719623
21	21568	203.746245790893	0.63730861937374
21	21627	204.383554410267	1.0254382786496
21	21716	205.408992688917	2.5492163728004
21	22043	207.958209061717	0.32745786841311
21	22060	208.28566693013	1.047970047601
21	22157	209.333636977731	3.959250089702
21	22604	213.292887067433	0.4201530739237
21	22642	213.713040141357	0.86420072434497
21	22727	214.577240865702	1.3792696741492
21	22849	215.956510539851	1.887635930508
21	23028	217.844146470359	0.42816167017017
21	23092	218.272308140529	2.0966037543167
21	23319	220.368911894846	1.9684788787264
21	23498	222.337390773572	4.1653193644628
21	23922	226.502710138035	1.4524198614539
21	24103	227.955129999489	1.7159521575879
21	24297	229.671082157077	1.1588088842175
21	24436	230.829891041294	1.2677116602007
21	24584	232.097602701495	0.13280698870948
21	24600	232.230409690204	3.5388690160602
21	24919	235.769278706264	0.6011474249578
21	24970	236.370426131222	0.29564103712371
21	24982	236.666067168346	1.4782066479729
21	25136	238.144273816319	0.1181518636265
21	25157	238.262425679945	0.41026921299137
21	25216	238.672694892936	0.35750205738535
21	25256	239.030196950321	1.3566990465866
21	25385	240.386895996908	2.6553348479052
21	25721	243.042230844813	1.4169320576598
21	25877	244.459162902473	3.6724975316381
21	26298	248.131660434111	1.6962298629563
21	26570	249.827890297067	0.80461540225796
21	26625	250.632505699325	0.12109249529324
21	26651	250.753598194618	1.0323741310602
21	26780	251.785972325678	1.2405871427479
21	26924	253.026559468426	2.0105532851017
21	27159	255.037112753528	2.5908674141755
21	27469	257.627980167703	2.7106762803135
21	27749	260.338656448016	8.2956779613957
21	28721	268.634334409412	3.1784388516388
21	29100	271.812773261051	3.5517568563011
21	29496	275.364530117352	0.4606371773271
21	29528	275.825167294679	2.6938411935572
21	29788	278.519008488236	1.7110779302163
21	29960	280.230086418452	0.93813051848899
21	30059	281.168216936941	0.52845485052358
21	30108	281.696671787465	0.44633038386867
21	30150	282.143002171334	2.1601283266363
21	30437	284.30313049797	3.5557289193995
21	30784	287.858859417369	0.096209033305709
21	30790	287.955068450675	1.0691667038987
21	30928	289.024235154574	0.10059325133151
21	30933	289.124828405906	0.98238473858718
21	31014	290.107213144493	1.5761377548767
21	31194	291.68335089937	1.2791393359105
21	31335	292.962490235281	0.9226797097242
21	31453	293.885169945005	0.4655645960667
21	31489	294.350734541072	2.5368615179167
21	31816	296.887596058989	0.65209642158284
21	31916	297.539692480572	1.0363292556741
21	32030	298.576021736246	1.3480752605068
21	32120	299.924096996753	2.694878179114
21	32444	302.618975175867	1.0488584672751
21	32541	303.667833643142	0.73124631625078
21	32634	304.399079959393	5.953551336392
21	33315	310.352631295785	3.0144865605745
21	33630	313.36711785636	3.4185202453627
21	34023	316.785638101723	1.2565586695596
21	34120	318.042196771283	0.19074964160492
21	34151	318.232946412888	0.13009601721003
21	34183	318.363042430098	2.4358638631838
21	34427	320.798906293282	4.5369124381103
21	34864	325.335818731392	3.5041155278494
21	35182	328.839934259241	2.8733733056854
21	35484	331.713307564926	0.1568740100005
21	35511	331.870181574926	1.9509440131918
21	35751	333.821125588118	1.8650674724664
21	35944	335.686193060584	0.97850446353364
21	36076	336.664697524118	1.6845189021429
21	36244	338.349216426261	1.994149215747
21	36423	340.343365642008	0.62515463555424
21	36479	340.968520277562	3.515270281345
21	36936	344.483790558907	2.5969359483214
21	37243	347.080726507228	0.39075210593629
21	37265	347.471478613164	2.2678898274015
21	37484	349.739368440565	2.475898244387
21	37734	352.215266684952	1.3620014426677
21	37849	353.57726812762	0.10171010838972
21	37858	353.67897823601	2.7862227852154
21	38164	356.465201021225	4.6302067174018
21	38727	361.095407738627	0.52236728380321
21	38823	361.61777502243	1.3856598073701
21	38974	363.0034348298	0.66801275458779
21	39046	363.671447584388	0.33505138337004
21	39076	364.006498967758	7.6403364872277
21	39885	371.646835454986	3.6638097992463
21	40369	375.310645254232	0.3732996911477
21	40427	375.68394494538	1.0872796755956
21	40519	376.771224620976	6.2935388212319
21	41248	383.064763442208	3.4913295650673
21	41641	386.556093007275	0.45213789275295
21	41704	387.008230900028	1.6217591185114
21	41867	388.629990018539	0.94388567389143
21	42018	389.57387569243	0.8059832518376
21	42114	390.379858944268	2.4108993794237
21	42323	392.790758323692	3.4627594560279
21	42711	396.25351777972	1.2219192173892
21	42826	397.475436997109	1.5635815546019
21	43007	399.039018551711	0.11667444898209
21	43013	399.155693000693	0.86054516497104

