version 2
run Nonmonitoring-exponential-502-20210224-17:49:29-27037
attr configname Nonmonitoring-exponential
attr datetime 20210224-17:49:29
attr experiment Nonmonitoring-exponential
attr inifile aerocom.ini
attr iterationvars $0=50
attr iterationvarsf 50-
attr measurement $0=50
attr network Aerocom
attr processid 27037
attr repetition 2
attr replication #2
attr resultdir results
attr runnumber 502
attr seedset 2
param **.t 2s
param **.k 50ms
param **.X 0.05s
param **.m 1s
param **.tDistribution "\"exponential\""
param **.operationMode 1
param **.s "70 byte"
param **.dimPoolMax 10000
param **.dimPoolMin 8000
param **.nDL 16
param **.nA 1
param **.DLMaxCapacity 0
param **.trasmitting false

vector 0 Aerocom.aircraft[0].packetGenerator arrivalTime:vector ETV
attr "" ""
attr source computeArrivalTime
vector 1 Aerocom.aircraft[0].linkSelector waitingTime:vector ETV
attr "" ""
attr source computeWaitingTime
vector 2 Aerocom.aircraft[0].linkSelector queueLength:vector ETV
attr "" ""
attr source computeQueueLength
vector 3 Aerocom.aircraft[0].dataLink[14] actualCapacity:vector ETV
attr "" ""
attr source computeActualCapacity
vector 4 Aerocom.aircraft[0].linkSelector serviceTime:vector ETV
attr "" ""
attr source computeServiceTime
vector 5 Aerocom.aircraft[0].dataLink[15] tDistribution:vector ETV
attr "" ""
attr source computeTDistribution
vector 6 Aerocom.aircraft[0].linkSelector responseTime:vector ETV
attr "" ""
attr source computeResponseTime
vector 7 Aerocom.aircraft[0].dataLink[4] tDistribution:vector ETV
attr "" ""
attr source computeTDistribution
vector 8 Aerocom.aircraft[0].dataLink[13] tDistribution:vector ETV
attr "" ""
attr source computeTDistribution
vector 9 Aerocom.aircraft[0].dataLink[11] tDistribution:vector ETV
attr "" ""
attr source computeTDistribution
vector 10 Aerocom.aircraft[0].dataLink[14] tDistribution:vector ETV
attr "" ""
attr source computeTDistribution
vector 11 Aerocom.aircraft[0].dataLink[12] tDistribution:vector ETV
attr "" ""
attr source computeTDistribution
vector 12 Aerocom.aircraft[0].dataLink[9] tDistribution:vector ETV
attr "" ""
attr source computeTDistribution
vector 13 Aerocom.aircraft[0].dataLink[5] tDistribution:vector ETV
attr "" ""
attr source computeTDistribution
vector 14 Aerocom.aircraft[0].dataLink[10] tDistribution:vector ETV
attr "" ""
attr source computeTDistribution
vector 15 Aerocom.aircraft[0].dataLink[7] tDistribution:vector ETV
attr "" ""
attr source computeTDistribution
vector 16 Aerocom.aircraft[0].dataLink[6] tDistribution:vector ETV
attr "" ""
attr source computeTDistribution
vector 17 Aerocom.aircraft[0].dataLink[3] tDistribution:vector ETV
attr "" ""
attr source computeTDistribution
vector 18 Aerocom.aircraft[0].dataLink[8] tDistribution:vector ETV
attr "" ""
attr source computeTDistribution
vector 19 Aerocom.aircraft[0].dataLink[2] tDistribution:vector ETV
attr "" ""
attr source computeTDistribution
vector 20 Aerocom.aircraft[0].dataLink[1] tDistribution:vector ETV
attr "" ""
attr source computeTDistribution
vector 21 Aerocom.aircraft[0].dataLink[0] tDistribution:vector ETV
attr "" ""
attr source computeTDistribution
0	1069	10.009046581726	0.019478254405
0	1075	10.028524836131	0.02292942436
0	1080	10.051454260491	0.00124084291
0	1082	10.052695103401	0.088058607678
0	1091	10.140753711079	0.060531770836
0	1097	10.201285481915	0.016172402908
0	1102	10.217457884823	0.079679454295
0	1107	10.297137339118	0.006714203355
0	1109	10.303851542473	0.006547708414
0	1114	10.310399250887	0.041366061895
0	1122	10.351765312782	0.095155022514
0	1128	10.446920335296	0.015553608654
0	1133	10.46247394395	0.11879572873
0	1138	10.58126967268	0.074590507201
0	1144	10.655860179881	0.011027490382
0	1150	10.666887670263	0.009886361877
0	1156	10.67677403214	0.004556440046
0	1159	10.681330472186	0.076452071881
0	1169	10.757782544067	0.101157364566
0	1174	10.858939908633	0.046824202827
0	1179	10.90576411146	0.084299166182
0	1187	10.990063277642	0.002132270014
0	1189	10.992195547656	0.018111898043
0	1197	11.010307445699	0.041194139417
0	1202	11.051501585116	0.001299563155
0	1204	11.052801148271	0.055151762222
0	1212	11.107952910493	0.071259794599
0	1217	11.179212705092	0.139348666404
0	1223	11.318561371496	0.050914320359
0	1228	11.369475691855	0.077090332203
0	1233	11.446566024058	0.041555045935
0	1239	11.488121069993	0.069400886563
0	1244	11.557521956556	0.120117794117
0	1249	11.677639750673	0.03436332238
0	1254	11.712003073053	0.056458210862
0	1259	11.768461283915	0.002183620412
0	1261	11.770644904327	0.016676214346
0	1270	11.787321118673	0.084877265526
0	1275	11.872198384199	0.029891464616
0	1281	11.902089848815	0.000685869586
0	1283	11.902775718401	0.243208992601
0	1293	12.145984711002	0.039929961208
0	1298	12.18591467221	0.014591697247
0	1303	12.200506369457	0.041827415021
0	1309	12.242333784478	0.108134173002
0	1314	12.35046795748	0.005990911542
0	1316	12.356458869022	0.021131135656
0	1324	12.377590004678	0.003241661105
0	1326	12.380831665783	0.01660158356
0	1334	12.397433249343	0.042750871507
0	1339	12.44018412085	0.060471857484
0	1344	12.500655978334	0.033226554372
0	1349	12.533882532706	0.021685706983
0	1355	12.555568239689	0.017935429061
0	1360	12.57350366875	0.002379418011
0	1362	12.575883086761	0.002030452849
0	1364	12.57791353961	0.024348180181
0	1375	12.602261719791	0.050241636622
0	1380	12.652503356413	0.078050819919
0	1385	12.730554176332	0.006638622701
0	1387	12.737192799033	0.119573410839
0	1396	12.856766209872	0.00058368588
0	1398	12.857349895752	0.003572372235
0	1400	12.860922267987	0.01619425058
0	1408	12.877116518567	0.14588581515
0	1416	13.023002333717	0.017944264904
0	1421	13.040946598621	0.016423205704
0	1426	13.057369804325	0.009941918403
0	1431	13.067311722728	0.085385649478
0	1438	13.152697372206	0.003466323062
0	1440	13.156163695268	0.001567433483
0	1442	13.157731128751	0.075532586394
0	1455	13.233263715145	0.086501508296
0	1463	13.319765223441	0.025603692963
0	1468	13.345368916404	0.061961204038
0	1473	13.407330120442	0.014105868902
0	1478	13.421435989344	0.095207297421
0	1486	13.516643286765	0.037092947496
0	1491	13.553736234261	0.002230085089
0	1493	13.55596631935	0.014717592863
0	1502	13.570683912213	0.035347176494
0	1507	13.606031088707	0.095496236591
0	1512	13.701527325298	0.01161962281
0	1517	13.713146948108	0.033034345576
0	1522	13.746181293684	0.065680898182
0	1528	13.811862191866	0.048795395314
0	1533	13.86065758718	0.05175301263
0	1538	13.91241059981	0.180730359563
0	1544	14.093140959373	0.076661823714
0	1550	14.169802783087	0.021905680807
0	1555	14.191708463894	0.027993894319
0	1560	14.219702358213	0.012721755096
0	1565	14.232424113309	0.049742643065
0	1570	14.282166756374	0.192484828772
0	1578	14.474651585146	0.021802803708
0	1583	14.496454388854	0.044224394679
0	1590	14.540678783533	0.153570855608
0	1599	14.694249639141	0.199991880176
0	1606	14.894241519317	0.047885870808
0	1611	14.942127390125	0.173152701122
0	1616	15.115280091247	0.033726521172
0	1621	15.149006612419	0.061056616281
0	1626	15.2100632287	0.014811442141
0	1631	15.224874670841	0.000978808862
0	1633	15.225853479703	0.013516444051
0	1638	15.239369923754	0.047444621021
0	1646	15.286814544775	0.036867066277
0	1652	15.323681611052	0.014354723565
0	1658	15.338036334617	0.055447221923
0	1663	15.39348355654	0.006930683388
0	1665	15.400414239928	0.039893011945
0	1673	15.440307251873	0.022805914517
0	1678	15.46311316639	0.02401367532
0	1683	15.48712684171	0.011163021837
0	1688	15.498289863547	0.051639402936
0	1693	15.549929266483	0.072724680374
0	1699	15.622653946857	0.114029739139
0	1705	15.736683685996	0.136042464386
0	1710	15.872726150382	0.036470727199
0	1716	15.909196877581	0.001337860053
0	1718	15.910534737634	0.10652512558
0	1727	16.017059863214	0.014789987261
0	1732	16.031849850475	0.01076301381
0	1737	16.042612864285	0.01547580515
0	1742	16.058088669435	0.086863964978
0	1748	16.144952634413	0.007676660298
0	1750	16.152629294711	0.019577990651
0	1758	16.172207285362	0.151308858488
0	1765	16.32351614385	0.05906552658
0	1770	16.38258167043	0.014225153049
0	1775	16.396806823479	0.060578178624
0	1780	16.457385002103	0.022017283538
0	1785	16.479402285641	0.078059833712
0	1790	16.557462119353	0.002508858334
0	1792	16.559970977687	0.011822671491
0	1797	16.571793649178	0.013599010943
0	1805	16.585392660121	0.053497678884
0	1811	16.638890339005	0.107204230841
0	1816	16.746094569846	0.122543612153
0	1823	16.868638181999	0.166816872754
0	1828	17.035455054753	0.013072780907
0	1833	17.04852783566	0.053359725757
0	1840	17.101887561417	0.002957418417
0	1842	17.104844979834	0.017610041742
0	1850	17.122455021576	0.017152781437
0	1855	17.139607803013	0.003058461977
0	1857	17.14266626499	0.02936697242
0	1865	17.17203323741	0.099915750194
0	1872	17.271948987604	0.000397627652
0	1874	17.272346615256	0.008429270103
0	1879	17.280775885359	0.073853523777
0	1887	17.354629409136	0.015704594458
0	1892	17.370334003594	0.012987051098
0	1897	17.383321054692	0.039726297965
0	1904	17.423047352657	0.059776369951
0	1909	17.482823722608	0.014536163629
0	1914	17.497359886237	0.088139481701
0	1920	17.585499367938	0.093112772711
0	1926	17.678612140649	0.039402417086
0	1931	17.718014557735	0.034879339608
0	1936	17.752893897343	0.034976209872
0	1941	17.787870107215	0.033149272514
0	1946	17.821019379729	0.007896661939
0	1952	17.828916041668	0.117830224172
0	1958	17.94674626584	0.059151491344
0	1963	18.005897757184	0.123413326806
0	1968	18.12931108399	0.01402479061
0	1973	18.1433358746	0.013829042721
0	1978	18.157164917321	0.027806471894
0	1984	18.184971389215	0.000947261188
0	1986	18.185918650403	0.050651565992
0	1995	18.236570216395	0.055477043725
0	2000	18.29204726012	0.006527548348
0	2002	18.298574808468	0.015774141493
0	2010	18.314348949961	0.153494738885
0	2016	18.467843688846	0.000720488957
0	2018	18.468564177803	0.02736421928
0	2027	18.495928397083	0.005108856887
0	2029	18.50103725397	0.029844168931
0	2037	18.530881422901	0.027136261243
0	2042	18.558017684144	0.012555793214
0	2047	18.570573477358	0.006422827828
0	2049	18.576996305186	0.007816517163
0	2054	18.584812822349	0.011602214367
0	2062	18.596415036716	0.068265104615
0	2069	18.664680141331	0.068335462913
0	2075	18.733015604244	0.095491963435
0	2080	18.828507567679	0.03041163286
0	2085	18.858919200539	0.029101571156
0	2090	18.888020771695	0.006024251104
0	2092	18.894045022799	0.015089125506
0	2100	18.909134148305	0.012124198046
0	2105	18.921258346351	0.005110176688
0	2107	18.926368523039	0.133137057263
0	2116	19.059505580302	0.003182260101
0	2118	19.062687840403	0.000396303985
0	2120	19.063084144388	0.00706484797
0	2125	19.070148992358	0.051343217317
0	2136	19.121492209675	0.154554450074
0	2142	19.276046659749	0.051734365893
0	2148	19.327781025642	0.077287762143
0	2153	19.405068787785	0.057010992896
0	2158	19.462079780681	0.019376226343
0	2163	19.481456007024	0.043155684384
0	2168	19.524611691408	0.028161716732
0	2173	19.55277340814	0.07674626486
0	2178	19.629519673	0.037236341024
0	2183	19.666756014024	0.086255677597
0	2189	19.753011691621	0.041592364388
0	2194	19.794604056009	0.05204019294
0	2202	19.846644248949	0.07881201901
0	2208	19.925456267959	0.009900578353
0	2213	19.935356846312	0.005834180142
0	2215	19.941191026454	0.064781201962
0	2224	20.005972228416	0.030035745362
0	2229	20.036007973778	0.016753507149
0	2234	20.052761480927	0.040334755331
0	2239	20.093096236258	0.09209263709
0	2245	20.185188873348	0.122226180225
0	2251	20.307415053573	0.042217942432
0	2256	20.349632996005	0.128862630964
0	2262	20.478495626969	0.004456186788
0	2264	20.482951813757	0.03259630884
0	2272	20.515548122597	0.12092909688
0	2278	20.636477219477	0.00589790084
0	2280	20.642375120317	0.031037224607
0	2288	20.673412344924	0.060531537074
0	2293	20.733943881998	0.143150800031
0	2299	20.877094682029	0.035199516472
0	2305	20.912294198501	0.002066746197
0	2307	20.914360944698	0.005580501023
0	2309	20.919941445721	0.005683915472
0	2315	20.925625361193	0.106845281428
0	2326	21.032470642621	0.070471924897
0	2331	21.102942567518	0.003474590386
0	2333	21.106417157904	0.00213376812
0	2335	21.108550926024	0.028676109457
0	2347	21.137227035481	0.030034156982
0	2352	21.167261192463	0.058839526968
0	2358	21.226100719431	0.084664306236
0	2366	21.310765025667	0.012340120963
0	2371	21.32310514663	0.027167246157
0	2376	21.350272392787	0.007054982237
0	2378	21.357327375024	0.010533528015
0	2386	21.367860903039	0.088254591318
0	2391	21.456115494357	0.092706405357
0	2399	21.548821899714	0.040318789291
0	2405	21.589140689005	0.005672228651
0	2407	21.594812917656	0.01271121548
0	2415	21.607524133136	0.016985173845
0	2420	21.624509306981	0.041221856779
0	2426	21.66573116376	0.012229135763
0	2431	21.677960299523	0.087535607477
0	2438	21.765495907	0.031205989078
0	2443	21.796701896078	0.11664408686
0	2448	21.913345982938	0.019253014501
0	2453	21.932598997439	0.049420193947
0	2458	21.982019191386	0.119896559204
0	2463	22.10191575059	0.07906385829
0	2468	22.18097960888	0.077001977618
0	2475	22.257981586498	0.059892801234
0	2480	22.317874387732	0.061166393665
0	2487	22.379040781397	0.026862182012
0	2492	22.405902963409	0.007535531574
0	2494	22.413438494983	0.013992029394
0	2502	22.427430524377	0.047314478702
0	2507	22.474745003079	0.039635110693
0	2512	22.514380113772	0.095356840896
0	2517	22.609736954668	0.129419599683
0	2522	22.739156554351	0.128699002799
0	2528	22.86785555715	0.044531608375
0	2534	22.912387165525	0.054266631212
0	2540	22.966653796737	0.030527391571
0	2545	22.997181188308	0.014986347806
0	2550	23.012167536114	0.041953978026
0	2555	23.05412151414	0.016203451015
0	2560	23.070324965155	0.02812987469
0	2566	23.098454839845	0.050458418082
0	2572	23.148913257927	0.015146096511
0	2577	23.164059354438	0.064441345855
0	2582	23.228500700293	0.004179622324
0	2584	23.232680322617	0.018234437584
0	2592	23.250914760201	0.135834589748
0	2598	23.386749349949	0.056654377788
0	2603	23.443403727737	0.013038878024
0	2608	23.456442605761	0.03531095702
0	2614	23.491753562781	0.00067831831
0	2616	23.492431881091	0.088417506206
0	2625	23.580849387297	0.027323752591
0	2630	23.608173139888	0.057489710536
0	2635	23.665662850424	0.003406651623
0	2637	23.669069502047	0.120453542699
0	2645	23.789523044746	0.036967010157
0	2650	23.826490054903	0.006388238033
0	2652	23.832878292936	0.024408332459
0	2660	23.857286625395	0.091545747767
0	2665	23.948832373162	0.013346581661
0	2670	23.962178954823	0.148085727796
0	2675	24.110264682619	0.041463487409
0	2680	24.151728170028	0.042621324945
0	2685	24.194349494973	0.012076795583
0	2690	24.206426290556	0.000207682196
0	2692	24.206633972752	0.008545882413
0	2697	24.215179855165	0.001704334548
0	2699	24.216884189713	0.050369592995
0	2711	24.267253782708	0.026591059171
0	2716	24.293844841879	0.017979583736
0	2721	24.311824425615	0.030650046468
0	2726	24.342474472083	0.112712127925
0	2732	24.455186600008	0.032471044969
0	2737	24.487657644977	0.052622433494
0	2742	24.540280078471	0.057194216765
0	2747	24.597474295236	0.114557581459
0	2752	24.712031876695	0.070302702475
0	2757	24.78233457917	0.013260777666
0	2762	24.795595356836	0.085958376396
0	2767	24.881553733232	0.01499057244
0	2772	24.896544305672	0.021256037454
0	2777	24.917800343126	0.072922449243
0	2782	24.990722792369	0.047719119156
0	2787	25.038441911525	0.015269790911
0	2792	25.053711702436	0.024950398232
0	2797	25.078662100668	0.050634242017
0	2802	25.129296342685	0.064612095064
0	2807	25.193908437749	0.05092066687
0	2813	25.244829104619	0.041445211636
0	2819	25.286274316255	0.035165900113
0	2824	25.321440216368	0.045166076531
0	2830	25.366606292899	0.066890834968
0	2836	25.433497127867	0.024529635863
0	2841	25.45802676373	0.091089617611
0	2846	25.549116381341	0.0503190236
0	2851	25.599435404941	0.079887996393
0	2856	25.679323401334	0.101169121959
0	2862	25.780492523293	0.041357007608
0	2867	25.821849530901	0.052733660773
0	2872	25.874583191674	0.145407696259
0	2878	26.019990887933	0.006882365095
0	2880	26.026873253028	0.009127716046
0	2888	26.036000969074	0.004646256925
0	2890	26.040647225999	0.015996995528
0	2898	26.056644221527	0.056577394708
0	2906	26.113221616235	0.003519502806
0	2908	26.116741119041	0.021971322907
0	2917	26.138712441948	0.057053518777
0	2922	26.195765960725	0.018896851514
0	2927	26.214662812239	0.008818718917
0	2932	26.223481531156	0.110388132843
0	2938	26.333869663999	0.02143729412
0	2944	26.355306958119	0.099723920102
0	2950	26.455030878221	0.009028421345
0	2955	26.464059299566	0.081907902041
0	2961	26.545967201607	0.021929492285
0	2966	26.567896693892	0.022105671319
0	2971	26.590002365211	0.020917934804
0	2977	26.610920300015	0.05119118831
0	2982	26.662111488325	0.015183771474
0	2987	26.677295259799	0.045668816989
0	2992	26.722964076788	0.159866546349
0	2998	26.882830623137	0.013429432815
0	3004	26.896260055952	0.09469038776
0	3010	26.990950443712	0.044542878122
0	3016	27.035493321834	0.042255377966
0	3021	27.0777486998	0.290567928354
0	3026	27.368316628154	0.000527871234
0	3028	27.368844499388	0.002695078852
0	3030	27.37153957824	0.040511986824
0	3041	27.412051565064	0.013558978002
0	3046	27.425610543066	0.229508986543
0	3051	27.655119529609	0.020097571805
0	3056	27.675217101414	0.096451190992
0	3064	27.771668292406	0.080705990662
0	3069	27.852374283068	0.0172142355
0	3074	27.869588518568	0.02932052996
0	3079	27.898909048528	0.033063791094
0	3085	27.931972839622	0.003238848333
0	3087	27.935211687955	0.02675047333
0	3096	27.961962161285	0.019155110647
0	3101	27.981117271932	0.028779922441
0	3106	28.009897194373	0.088750810172
0	3111	28.098648004545	0.002345102742
0	3113	28.100993107287	0.067055965035
0	3122	28.168049072322	0.02513227458
0	3127	28.193181346902	0.016344359464
0	3132	28.209525706366	0.029312423175
0	3137	28.238838129541	0.065208105539
0	3142	28.30404623508	0.008533860468
0	3147	28.312580095548	0.019260588003
0	3152	28.331840683551	0.009864187022
0	3157	28.341704870573	0.008275663284
0	3162	28.349980533857	0.096912308409
0	3167	28.446892842266	0.209581547344
0	3174	28.65647438961	0.014081920255
0	3179	28.670556309865	0.01516551433
0	3185	28.685721824195	0.038673769674
0	3192	28.724395593869	0.046904737859
0	3198	28.771300331728	0.013490697281
0	3203	28.784791029009	0.124799338401
0	3208	28.90959036741	0.002587234732
0	3210	28.912177602142	0.051499624091
0	3218	28.963677226233	0.166995163026
0	3223	29.130672389259	0.027824243452
0	3228	29.158496632711	0.120795330339
0	3234	29.27929196305	0.025309815906
0	3239	29.304601778956	0.021994073357
0	3244	29.326595852313	0.002507150326
0	3246	29.329103002639	0.006073616269
0	3251	29.335176618908	0.004236876707
0	3253	29.339413495615	0.027197439013
0	3264	29.366610934628	0.029953751332
0	3269	29.39656468596	0.010096215934
0	3274	29.406660901894	0.127757452912
0	3279	29.534418354806	0.051412076619
0	3285	29.585830431425	0.013287513782
0	3290	29.599117945207	0.073733935807
0	3295	29.672851881014	0.1015741989
0	3300	29.774426079914	0.071620644259
0	3308	29.846046724173	0.08205339774
0	3314	29.928100121913	0.00336130926
0	3316	29.931461431173	0.009567349438
0	3321	29.941028780611	0.048678989209
0	3330	29.98970776982	0.018725761491
0	3336	30.008433531311	0.032275147299
0	3342	30.04070867861	0.027965551248
0	3347	30.068674229858	0.046474087653
0	3353	30.115148317511	0.098046917362
0	3361	30.213195234873	0.028152785216
0	3366	30.241348020089	0.050277403765
0	3371	30.291625423854	0.114896412239
0	3377	30.406521836093	0.087089676881
0	3385	30.493611512974	0.00948761051
0	3390	30.503099123484	0.034363434132
0	3395	30.537462557616	0.01491386997
0	3400	30.552376427586	0.043668835563
0	3406	30.596045263149	0.01143655242
0	3411	30.607481815569	0.030248778558
0	3416	30.637730594127	0.067172226131
0	3422	30.704902820258	0.014938612106
0	3427	30.719841432364	0.009740418526
0	3432	30.72958185089	0.048160813951
0	3438	30.777742664841	0.024236237697
0	3443	30.801978902538	0.042832449922
0	3448	30.84481135246	0.018661184667
0	3453	30.863472537127	0.101025920601
0	3458	30.964498457728	0.073475092209
0	3464	31.037973549937	0.129231886345
0	3470	31.167205436282	2.5964924e-05
0	3472	31.167231401206	0.042683669147
0	3480	31.209915070353	0.06959431893
0	3487	31.279509389283	0.059222001708
0	3493	31.338731390991	0.110751311947
0	3499	31.449482702938	0.024895205425
0	3504	31.474377908363	0.026104110783
0	3510	31.500482019146	0.056418636655
0	3515	31.556900655801	0.049915475432
0	3521	31.606816131233	0.316334433155
0	3531	31.923150564388	0.093091453324
0	3537	32.016242017712	0.140990070847
0	3544	32.157232088559	0.019952146893
0	3549	32.177184235452	0.007613118646
0	3554	32.184797354098	0.069622253525
0	3560	32.254419607623	0.139166973759
0	3565	32.393586581382	0.019449014937
0	3570	32.413035596319	0.001971230653
0	3572	32.415006826972	0.012284598707
0	3577	32.427291425679	0.001275361314
0	3582	32.428566786993	0.069497128655
0	3591	32.498063915648	0.009788505902
0	3596	32.50785242155	0.043494570896
0	3602	32.551346992446	0.018195619756
0	3607	32.569542612202	0.000617228025
0	3609	32.570159840227	0.209149925425
0	3617	32.779309765652	0.036221821343
0	3623	32.815531586995	0.143641623115
0	3629	32.95917321011	0.204768127459
0	3639	33.163941337569	0.07218676082
0	3645	33.236128098389	0.04815195955
0	3650	33.284280057939	0.048787453724
0	3657	33.333067511663	0.010988335015
0	3662	33.344055846678	0.173500974983
0	3667	33.517556821661	0.082888470679
0	3673	33.60044529234	0.042550467802
0	3678	33.642995760142	0.062309295088
0	3683	33.70530505523	0.011990301996
0	3688	33.717295357226	0.000363002999
0	3690	33.717658360225	0.007161990535
0	3692	33.72482035076	0.063830099746
0	3704	33.788650450506	0.072145229227
0	3709	33.860795679733	0.058579984389
0	3715	33.919375664122	0.037466653227
0	3721	33.956842317349	0.074117014556
0	3726	34.030959331905	0.085021388456
0	3734	34.115980720361	0.014726686287
0	3739	34.130707406648	0.078957817319
0	3744	34.209665223967	0.004277136732
0	3746	34.213942360699	0.05545995669
0	3754	34.269402317389	0.081020910471
0	3760	34.35042322786	0.074974985752
0	3765	34.425398213612	0.013665417145
0	3770	34.439063630757	0.058260821833
0	3775	34.49732445259	0.01389961275
0	3780	34.51122406534	0.027997709027
0	3786	34.539221774367	0.015153660093
0	3791	34.55437543446	0.088640504685
0	3798	34.643015939145	0.010631216954
0	3804	34.653647156099	0.123781528611
0	3810	34.77742868471	0.031426994971
0	3815	34.808855679681	0.075128330905
0	3821	34.883984010586	0.014829342612
0	3826	34.898813353198	0.004488011343
0	3828	34.903301364541	0.195583319159
0	3836	35.0988846837	0.149467121432
0	3842	35.248351805132	0.01357927154
0	3847	35.261931076672	0.032420709742
0	3852	35.294351786414	0.041052325632
0	3857	35.335404112046	0.108354758255
0	3862	35.443758870301	0.067111909316
0	3868	35.510870779617	0.00443912125
0	3870	35.515309900867	0.123601311352
0	3880	35.638911212219	0.139218553075
0	3886	35.778129765294	0.04531196882
0	3891	35.823441734114	0.018906379733
0	3896	35.842348113847	0.005099321321
0	3898	35.847447435168	0.027327992916
0	3907	35.874775428084	0.039435513203
0	3912	35.914210941287	0.057812888571
0	3918	35.972023829858	0.082905355084
0	3924	36.054929184942	0.004760292516
0	3926	36.059689477458	0.113594315002
0	3935	36.17328379246	0.011660644158
0	3940	36.184944436618	0.060361916521
0	3946	36.245306353139	0.043734786221
0	3952	36.28904113936	0.008525557428
0	3957	36.297566696788	0.024327111037
0	3962	36.321893807825	0.00258046908
0	3964	36.324474276905	0.00562482433
0	3969	36.330099101235	0.053001259877
0	3977	36.383100361112	0.000506808728
0	3979	36.38360716984	0.044066308175
0	3987	36.427673478015	0.113235581821
0	3993	36.540909059836	0.035250406002
0	3998	36.576159465838	0.055134839131
0	4004	36.631294304969	0.002244338533
0	4006	36.633538643502	0.01957306101
0	4014	36.653111704512	0.029922708704
0	4019	36.683034413216	0.108607164806
0	4025	36.791641578022	0.043886256274
0	4030	36.835527834296	0.170900359106
0	4035	37.006428193402	0.010402391614
0	4042	37.016830585016	0.004252908027
0	4044	37.021083493043	0.05306410088
0	4053	37.074147593923	0.015087718103
0	4058	37.089235312026	0.022176161905
0	4063	37.111411473931	0.037716200055
0	4068	37.149127673986	0.005509574819
0	4070	37.154637248805	0.126693213395
0	4079	37.2813304622	0.013206662889
0	4084	37.294537125089	0.013267099219
0	4089	37.307804224308	0.000414132001
0	4091	37.308218356309	0.136938975916
0	4100	37.445157332225	0.026715195519
0	4105	37.471872527744	0.115696453434
0	4112	37.587568981178	0.001500754296
0	4114	37.589069735474	0.020640056065
0	4122	37.609709791539	0.04838048513
0	4127	37.658090276669	0.012759808288
0	4132	37.670850084957	0.059866822555
0	4137	37.730716907512	0.010127610253
0	4142	37.740844517765	0.025493549261
0	4147	37.766338067026	0.002827326527
0	4149	37.769165393553	0.178023204709
0	4160	37.947188598262	0.156269213294
0	4165	38.103457811556	0.045330449341
0	4170	38.148788260897	0.007938761669
0	4175	38.156727022566	0.083693053958
0	4181	38.240420076524	0.158235122183
0	4188	38.398655198707	0.008941688714
0	4193	38.407596887421	0.020709722444
0	4199	38.428306609865	0.052717478342
0	4204	38.481024088207	0.003057190225
0	4206	38.484081278432	0.003115659363
0	4208	38.487196937795	0.085526859134
0	4219	38.572723796929	0.002804548943
0	4221	38.575528345872	0.081329843224
0	4229	38.656858189096	0.022760485381
0	4234	38.679618674477	0.031118075677
0	4241	38.710736750154	0.069039787716
0	4246	38.77977653787	0.073998313255
0	4252	38.853774851125	0.017493020756
0	4257	38.871267871881	0.069079117052
0	4263	38.940346988933	0.094960522283
0	4271	39.035307511216	0.029954813285
0	4276	39.065262324501	0.00453423925
0	4278	39.069796563751	0.016659880751
0	4286	39.086456444502	0.077636271719
0	4292	39.164092716221	0.007686093007
0	4294	39.171778809228	0.018099961573
0	4302	39.189878770801	0.120443859408
0	4307	39.310322630209	0.160429275121
0	4313	39.47075190533	0.004120503165
0	4315	39.474872408495	0.063227160615
0	4323	39.53809956911	0.064669504279
0	4328	39.602769073389	0.055677419983
0	4333	39.658446493372	0.004043280133
0	4335	39.662489773505	0.021400199548
0	4343	39.683889973053	0.055426379723
0	4348	39.739316352776	0.008529656337
0	4353	39.747846009113	0.003109390016
0	4355	39.750955399129	0.065801421238
0	4364	39.816756820367	0.005897188363
0	4366	39.82265400873	0.205610146854
0	4375	40.028264155584	0.032250528442
0	4380	40.060514684026	0.003630791514
0	4382	40.06414547554	0.004221166846
0	4384	40.068366642386	0.110145771783
0	4397	40.178512414169	0.001623732571
0	4399	40.18013614674	0.025637173766
0	4407	40.205773320506	0.051029438172
0	4413	40.256802758678	0.114980336687
0	4419	40.371783095365	0.112772803
0	4424	40.484555898365	0.001245195174
0	4426	40.485801093539	0.033008121208
0	4436	40.518809214747	0.039073154365
0	4442	40.557882369112	0.090903278929
0	4447	40.648785648041	0.050237228941
0	4453	40.699022876982	0.061719432438
0	4458	40.76074230942	0.019372569866
0	4463	40.780114879286	0.135175474219
0	4470	40.915290353505	0.01811598678
0	4476	40.933406340285	0.18317192598
0	4481	41.116578266265	0.094247009205
0	4486	41.21082527547	0.044355640539
0	4491	41.255180916009	0.050325834816
0	4496	41.305506750825	0.146008365735
0	4502	41.45151511656	0.004277804516
0	4504	41.455792921076	0.061097534939
0	4513	41.516890456015	0.066455402267
0	4518	41.583345858282	0.031243975241
0	4523	41.614589833523	0.007069582125
0	4525	41.621659415648	0.123270239748
0	4533	41.744929655396	0.109963638409
0	4539	41.854893293805	0.043326848409
0	4544	41.898220142214	0.065423619399
0	4549	41.963643761613	0.013669209724
0	4555	41.977312971337	0.008357390193
0	4560	41.98567036153	0.024673928335
0	4565	42.010344289865	0.01954122728
0	4570	42.029885517145	0.02741909752
0	4575	42.057304614665	0.009378042583
0	4580	42.066682657248	0.008959952055
0	4585	42.075642609303	0.0865488096
0	4591	42.162191418903	0.001265879672
0	4593	42.163457298575	0.148483457636
0	4601	42.311940756211	0.002702293576
0	4603	42.314643049787	0.000406111803
0	4605	42.31504916159	0.056717133105
0	4616	42.371766294695	0.004249848421
0	4618	42.376016143116	0.014643143958
0	4627	42.390659287074	0.030572750557
0	4632	42.421232037631	0.008246973855
0	4634	42.429479011486	0.037689316871
0	4642	42.467168328357	0.011006344601
0	4647	42.478174672958	0.095819189687
0	4652	42.573993862645	0.085265321097
0	4657	42.659259183742	0.021527457146
0	4663	42.680786640888	0.111170904726
0	4669	42.791957545614	0.01027595631
0	4674	42.802233501924	0.030286060859
0	4680	42.832519562783	0.0165540458
0	4685	42.849073608583	0.067515949832
0	4691	42.916589558415	0.001525110205
0	4693	42.91811466862	0.042787009422
0	4701	42.960901678042	0.016936729431
0	4706	42.977838407473	0.033521865734
0	4711	43.011360273207	0.056243440769
0	4717	43.067603713976	0.051697375435
0	4722	43.119301089411	0.042435242898
0	4727	43.161736332309	0.148123361573
0	4734	43.309859693882	0.050304692486
0	4739	43.360164386368	0.081086405851
0	4745	43.441250792219	0.171708411066
0	4752	43.612959203285	0.026418003035
0	4757	43.63937720632	0.028038796151
0	4762	43.667416002471	0.014478189234
0	4767	43.681894191705	0.012132716367
0	4772	43.694026908072	0.000131360143
0	4774	43.694158268215	0.001144323835
0	4776	43.69530259205	0.017214599895
0	4784	43.712517191945	0.05637925229
0	4792	43.768896444235	0.193648951069
0	4797	43.962545395304	0.000772503928
0	4799	43.963317899232	0.027572394114
0	4807	43.990890293346	0.007941425357
0	4812	43.998831718703	0.038835554997
0	4817	44.0376672737	0.033878586456
0	4822	44.071545860156	0.003289348134
0	4824	44.07483520829	0.007487093348
0	4829	44.082322301638	0.007669856088
0	4834	44.089992157726	0.04471521534
0	4842	44.134707373066	0.212008687533
0	4849	44.346716060599	0.0119803542
0	4854	44.358696414799	0.038364160772
0	4859	44.397060575571	0.078103987409
0	4864	44.47516456298	0.012497436635
0	4869	44.487661999615	0.004459840072
0	4871	44.492121839687	0.051352371789
0	4879	44.543474211476	0.027511707213
0	4884	44.570985918689	0.064886430259
0	4889	44.635872348948	0.003838081361
0	4891	44.639710430309	0.035070403365
0	4899	44.674780833674	0.028675161451
0	4904	44.703455995125	0.019936459963
0	4909	44.723392455088	0.065647487495
0	4915	44.789039942583	0.064042449916
0	4920	44.853082392499	0.012910084339
0	4925	44.865992476838	0.006974713055
0	4927	44.872967189893	0.006522444443
0	4932	44.879489634336	0.063736426088
0	4943	44.943226060424	0.179877698622
0	4948	45.123103759046	0.029687397922
0	4953	45.152791156968	0.031664026022
0	4958	45.18445518299	0.036342077598
0	4963	45.220797260588	0.144129656845
0	4969	45.364926917433	0.049282769189
0	4975	45.414209686622	0.048343268347
0	4981	45.462552954969	0.098160743314
0	4986	45.560713698283	0.005018552258
0	4988	45.565732250541	0.018937046137
0	4997	45.584669296678	0.001158087326
0	4999	45.585827384004	0.05955539415
0	5007	45.645382778154	0.110298431882
0	5013	45.755681210036	0.006198105095
0	5015	45.761879315131	0.045871280895
0	5025	45.807750596026	0.028863014814
0	5030	45.83661361084	0.036335481541
0	5037	45.872949092381	0.06314676904
0	5042	45.936095861421	0.200929023027
0	5048	46.137024884448	0.110328428684
0	5055	46.247353313132	0.142044999296
0	5060	46.389398312428	0.040726648317
0	5065	46.430124960745	0.068362766292
0	5071	46.498487727037	0.050171842212
0	5076	46.548659569249	0.013244490503
0	5081	46.561904059752	0.037990072798
0	5086	46.59989413255	0.136762016331
0	5093	46.736656148881	0.02121398766
0	5098	46.757870136541	0.030991729463
0	5103	46.788861866004	0.093465045856
0	5109	46.88232691186	0.055234053054
0	5114	46.937560964914	0.042695617143
0	5119	46.980256582057	0.030957733309
0	5124	47.011214315366	0.015119419035
0	5129	47.026333734401	0.006204509094
0	5131	47.032538243495	0.079754972734
0	5140	47.112293216229	0.007354279529
0	5143	47.119647495758	0.089942425358
0	5152	47.209589921116	0.079892631777
0	5157	47.289482552893	0.030154815521
0	5162	47.319637368414	0.197884742707
0	5170	47.517522111121	0.056911463336
0	5175	47.574433574457	0.019352269515
0	5180	47.593785843972	0.004895396014
0	5182	47.598681239986	0.05405400937
0	5190	47.652735249356	0.064109384824
0	5197	47.71684463418	0.034946257874
0	5202	47.751790892054	0.020509369099
0	5208	47.772300261153	0.041789104489
0	5213	47.814089365642	0.001140020669
0	5215	47.815229386311	0.118595086436
0	5226	47.933824472747	0.0610584855
0	5231	47.994882958247	0.002422227951
0	5233	47.997305186198	0.039731246324
0	5243	48.037036432522	0.01899021283
0	5248	48.056026645352	0.088091015414
0	5253	48.144117660766	0.085741647827
0	5258	48.229859308593	0.006120620617
0	5260	48.23597992921	0.025992602865
0	5268	48.261972532075	0.24959494678
0	5278	48.511567478855	0.130656587022
0	5283	48.642224065877	0.020212334962
0	5288	48.662436400839	0.046683032784
0	5293	48.709119433623	0.007190412927
0	5295	48.71630984655	0.023115290746
0	5303	48.739425137296	0.002164921535
0	5305	48.741590058831	0.041057868283
0	5313	48.782647927114	0.019345987075
0	5318	48.801993914189	0.025310317389
0	5323	48.827304231578	0.011779063243
0	5329	48.839083294821	0.14254553391
0	5335	48.981628828731	0.042703386679
0	5342	49.02433221541	0.110526587672
0	5347	49.134858803082	0.158967189562
0	5353	49.293825992644	0.086858582604
0	5359	49.380684575248	0.012218217514
0	5364	49.392902792762	0.060606680038
0	5369	49.4535094728	0.019958460605
0	5374	49.473467933405	0.079157202487
0	5381	49.552625135892	0.015470271824
0	5386	49.568095407716	0.008336390809
0	5388	49.576431798525	0.015808382949
0	5396	49.592240181474	0.010923915735
0	5401	49.603164097209	0.058092556752
0	5407	49.661256653961	0.009253149064
0	5412	49.670509803025	0.111851801532
0	5417	49.782361604557	0.065001137683
0	5422	49.84736274224	0.043883738579
0	5427	49.891246480819	0.00239427576
0	5429	49.893640756579	0.025597716144
0	5437	49.919238472723	0.053052822334
0	5442	49.972291295057	0.027734626472
0	5447	50.000025921529	0.03860215447
0	5453	50.038628075999	0.040258319522
0	5458	50.078886395521	0.257402289878
0	5464	50.336288685399	0.018225930304
0	5469	50.354514615703	0.001989704607
0	5471	50.35650432031	0.014899655931
0	5480	50.371403976241	0.019910529357
0	5486	50.391314505598	0.120352141065
0	5491	50.511666646663	0.013787012063
0	5496	50.525453658726	0.035821301297
0	5502	50.561274960023	0.023986698424
0	5508	50.585261658447	0.006368189699
0	5510	50.591629848146	0.10374740289
0	5519	50.695377251036	0.042266688856
0	5524	50.737643939892	0.012102870799
0	5529	50.749746810691	0.014381730033
0	5534	50.764128540724	0.003281160346
0	5536	50.76740970107	0.000270482297
0	5538	50.767680183367	0.032091928982
0	5549	50.799772112349	0.042443616102
0	5554	50.842215728451	0.075044537511
0	5560	50.917260265962	0.022173880292
0	5565	50.939434146254	0.152503268815
0	5570	51.091937415069	0.057487294964
0	5576	51.149424710033	0.085961497938
0	5581	51.235386207971	0.04759520146
0	5586	51.282981409431	0.002196854035
0	5588	51.285178263466	0.009540897065
0	5593	51.294719160531	0.129126510826
0	5603	51.423845671357	0.017930978073
0	5608	51.44177664943	0.050419845004
0	5613	51.492196494434	0.062916053625
0	5619	51.555112548059	0.025496821918
0	5624	51.580609369977	0.028166087043
0	5629	51.60877545702	0.200385155035
0	5634	51.809160612055	0.007235263473
0	5636	51.816395875528	0.005164758349
0	5641	51.821560633877	0.00955534243
0	5646	51.831115976307	0.029881351045
0	5654	51.860997327352	0.064672282097
0	5660	51.925669609449	0.004122364605
0	5662	51.929791974054	0.048968494735
0	5670	51.978760468789	0.015936529816
0	5675	51.994696998605	0.040529647426
0	5680	52.035226646031	0.123095359139
0	5685	52.15832200517	0.002870010778
0	5687	52.161192015948	0.323646684947
0	5699	52.484838700895	0.02459048476
0	5705	52.509429185655	0.009354785815
0	5710	52.51878397147	0.029505467417
0	5715	52.548289438887	0.01666432374
0	5720	52.564953762627	0.043895298185
0	5725	52.608849060812	0.061873409893
0	5731	52.670722470705	0.059550736863
0	5736	52.730273207568	0.003598742189
0	5739	52.733871949757	0.06327212343
0	5747	52.797144073187	0.025372060342
0	5752	52.822516133529	0.044823336895
0	5757	52.867339470424	0.235723962015
0	5763	53.103063432439	0.015785036926
0	5768	53.118848469365	0.161435626578
0	5773	53.280284095943	0.026238536172
0	5779	53.306522632115	0.062246795987
0	5784	53.368769428102	0.074724714262
0	5790	53.443494142364	0.116126319235
0	5796	53.559620461599	0.031328445749
0	5801	53.590948907348	0.026625951021
0	5806	53.617574858369	0.025870007517
0	5811	53.643444865886	0.046510436341
0	5817	53.689955302227	0.096389284169
0	5822	53.786344586396	0.070818955501
0	5827	53.857163541897	0.265891812447
0	5834	54.123055354344	0.122902318726
0	5839	54.24595767307	0.027251555522
0	5844	54.273209228592	0.000113686042
0	5846	54.273322914634	0.05028257759
0	5854	54.323605492224	0.208656358734
0	5861	54.532261850958	0.121122185728
0	5867	54.653384036686	0.009017831712
0	5872	54.662401868398	0.008389612372
0	5877	54.67079148077	0.086196252265
0	5882	54.756987733035	0.017208527981
0	5887	54.774196261016	0.030155463186
0	5892	54.804351724202	0.052101204606
0	5898	54.856452928808	0.056607216207
0	5903	54.913060145015	0.009823281862
0	5908	54.922883426877	0.003977800189
0	5910	54.926861227066	0.016432373545
0	5918	54.943293600611	0.015122545748
0	5923	54.958416146359	0.137602422115
0	5928	55.096018568474	0.03070925678
0	5933	55.126727825254	0.018908974556
0	5938	55.14563679981	0.09521219649
0	5943	55.2408489963	0.005049543128
0	5945	55.245898539428	0.119465376261
0	5955	55.365363915689	0.034590404206
0	5960	55.399954319895	0.01614638345
0	5965	55.416100703345	0.003953200059
0	5967	55.420053903404	0.003562068653
0	5972	55.423615972057	0.014449373882
0	5980	55.438065345939	0.019159134559
0	5985	55.457224480498	0.155246060632
0	5990	55.61247054113	0.02381783643
0	5995	55.63628837756	0.092108793186
0	6000	55.728397170746	0.044249056725
0	6005	55.772646227471	0.00805133747
0	6010	55.780697564941	0.010671593132
0	6015	55.791369158073	0.01413130853
0	6020	55.805500466603	0.032740902006
0	6028	55.838241368609	0.00281580055
0	6030	55.841057169159	0.027553093648
0	6038	55.868610262807	0.011147036547
0	6043	55.879757299354	0.079869194142
0	6049	55.959626493496	0.082779809447
0	6054	56.042406302943	0.005962169337
0	6056	56.04836847228	0.123195061701
0	6065	56.171563533981	0.002392478593
0	6067	56.173956012574	0.049037602405
0	6075	56.222993614979	0.059887449683
0	6081	56.282881064662	0.004466741805
0	6083	56.287347806467	0.033125156298
0	6092	56.320472962765	0.034787187469
0	6097	56.355260150234	0.017171594402
0	6102	56.372431744636	0.055051783254
0	6107	56.42748352789	0.105295378517
0	6113	56.532778906407	0.005633982474
0	6116	56.538412888881	0.101676426155
0	6126	56.640089315036	0.043639438788
0	6132	56.683728753824	0.004568441164
0	6134	56.688297194988	0.070454515699
0	6143	56.758751710687	0.031028990037
0	6148	56.789780700724	0.02435685157
0	6153	56.814137552294	0.054151953796
0	6158	56.86828950609	0.087326558276
0	6165	56.955616064366	0.032215542044
0	6171	56.98783160641	0.009302758886
0	6176	56.997134365296	0.004900479256
0	6178	57.002034844552	0.015319488348
0	6187	57.0173543329	0.062107573726
0	6192	57.079461906626	0.081727067332
0	6199	57.161188973958	0.085499137718
0	6206	57.246688111676	0.057686425107
0	6212	57.304374536783	0.154199660307
0	6217	57.45857419709	0.076162467908
0	6223	57.534736664998	0.004557237884
0	6225	57.539293902882	0.009839971466
0	6230	57.549133874348	0.02843935571
0	6238	57.577573230058	0.1533164728
0	6243	57.730889702858	0.005959975456
0	6245	57.736849678314	0.009737099439
0	6250	57.746586777753	0.01314191896
0	6258	57.759728696713	0.059691832123
0	6263	57.819420528836	0.024801311482
0	6268	57.844221840318	0.018447411151
0	6273	57.862669251469	0.006520948868
0	6275	57.869190200337	0.035581744169
0	6283	57.904771944506	0.00928748904
0	6288	57.914059433546	0.122958552721
0	6293	58.037017986267	0.028240343676
0	6298	58.065258329943	0.075198267735
0	6304	58.140456597678	0.034355764007
0	6309	58.174812361685	0.069121458008
0	6315	58.243933819693	0.08292450325
0	6320	58.326858322943	0.005873886654
0	6322	58.332732209597	0.068255150752
0	6331	58.400987360349	0.122223837012
0	6336	58.523211197361	0.016408054855
0	6342	58.539619252216	0.116691983513
0	6347	58.656311235729	0.179170524591
0	6355	58.83548176032	0.207119361497
0	6360	59.042601121817	0.080260291193
0	6366	59.12286141301	0.005996358997
0	6368	59.128857772007	0.117897949543
0	6377	59.24675572155	0.024128323744
0	6382	59.270884045294	0.030906542905
0	6388	59.301790588199	0.016076542528
0	6393	59.317867130727	0.065777792371
0	6399	59.383644923098	0.094427814874
0	6404	59.478072737972	0.072035178065
0	6409	59.550107916037	0.114701960696
0	6414	59.664809876733	0.019590380916
0	6419	59.684400257649	0.035179360687
0	6426	59.719579618336	0.026084648256
0	6431	59.745664266592	0.012505343836
0	6436	59.758169610428	0.220883437617
0	6443	59.979053048045	0.002472736572
0	6445	59.981525784617	0.022829191909
0	6453	60.004354976526	0.106416475608
0	6459	60.110771452134	0.012055941933
0	6464	60.122827394067	0.148225477325
0	6469	60.271052871392	0.020572475176
0	6474	60.291625346568	0.070258889064
0	6479	60.361884235632	0.04033308828
0	6484	60.402217323912	0.086859035191
0	6490	60.489076359103	0.068101462695
0	6496	60.557177821798	0.018625827458
0	6501	60.575803649256	0.037102750681
0	6506	60.612906399937	0.006905126442
0	6509	60.619811526379	0.006407330628
0	6514	60.626218857007	0.005313682675
0	6519	60.631532539682	0.051737719973
0	6527	60.683270259655	0.055732873202
0	6532	60.739003132857	0.091049113205
0	6537	60.830052246062	0.007650299853
0	6539	60.837702545915	0.040322405448
0	6547	60.878024951363	0.12822109805
0	6552	61.006246049413	0.012643928198
0	6557	61.018889977611	0.014045960802
0	6562	61.032935938413	0.048999332036
0	6567	61.081935270449	0.068929290809
0	6573	61.150864561258	0.131885067086
0	6578	61.282749628344	0.047214318486
0	6584	61.32996394683	0.044719881373
0	6589	61.374683828203	0.021147128124
0	6594	61.395830956327	0.022420497323
0	6599	61.41825145365	0.049879174861
0	6606	61.468130628511	0.030487744948
0	6611	61.498618373459	0.000904773889
0	6613	61.499523147348	0.044946522503
0	6621	61.544469669851	0.072293190562
0	6629	61.616762860413	0.006868922668
0	6631	61.623631783081	0.009435451207
0	6639	61.633067234288	0.082251407644
0	6644	61.715318641932	0.047389908828
0	6649	61.76270855076	0.101279869411
0	6654	61.863988420171	0.006255875236
0	6657	61.870244295407	0.007222514938
0	6662	61.877466810345	0.042244581681
0	6670	61.919711392026	0.009636778402
0	6675	61.929348170428	0.066148315059
0	6681	61.995496485487	0.011517660727
0	6686	62.007014146214	0.079624710897
0	6692	62.086638857111	0.04339097493
0	6697	62.130029832041	0.007324117303
0	6700	62.137353949344	0.067462997319
0	6710	62.204816946663	0.032393557883
0	6715	62.237210504546	0.046591029826
0	6722	62.283801534372	0.0264695732
0	6728	62.310271107572	0.044008329633
0	6734	62.354279437205	0.025465385187
0	6740	62.379744822392	0.042146907565
0	6745	62.421891729957	0.088793787554
0	6751	62.510685517511	0.120782637481
0	6758	62.631468154992	0.010395188993
0	6763	62.641863343985	0.00604814999
0	6765	62.647911493975	0.071672830657
0	6773	62.719584324632	0.037727148409
0	6778	62.757311473041	0.066551469303
0	6784	62.823862942344	0.002756295134
0	6786	62.826619237478	0.02744653556
0	6795	62.854065773038	0.009286921392
0	6800	62.86335269443	0.007369715578
0	6802	62.870722410008	0.077569462712
0	6810	62.94829187272	0.060951230439
0	6816	63.009243103159	0.005463846451
0	6818	63.01470694961	0.103991389272
0	6828	63.118698338882	0.039967733063
0	6833	63.158666071945	0.00967099135
0	6838	63.168337063295	0.035991434892
0	6844	63.204328498187	0.006253320292
0	6846	63.210581818479	0.129077311392
0	6855	63.339659129871	0.011824373901
0	6860	63.351483503772	0.01442271595
0	6865	63.365906219722	0.029302427652
0	6870	63.395208647374	0.044433141193
0	6875	63.439641788567	0.030853292906
0	6880	63.470495081473	0.096240516061
0	6885	63.566735597534	0.070720885007
0	6890	63.637456482541	0.004785450505
0	6892	63.642241933046	0.008970206571
0	6897	63.651212139617	0.053947606435
0	6907	63.705159746052	0.11490989744
0	6913	63.820069643492	0.02621736742
0	6919	63.846287010912	0.036875326858
0	6924	63.88316233777	0.0102596668
0	6930	63.89342200457	0.016383660909
0	6935	63.909805665479	0.049444183831
0	6940	63.95924984931	0.001151175009
0	6942	63.960401024319	0.095174580176
0	6952	64.055575604495	0.044084295039
0	6957	64.099659899534	0.090155548179
0	6962	64.189815447713	0.011275416308
0	6967	64.201090864021	0.075068773985
0	6972	64.276159638006	0.029127877866
0	6977	64.305287515872	0.023441349386
0	6982	64.328728865258	0.16192674627
0	6987	64.490655611528	0.06374762568
0	6995	64.554403237208	0.011308475072
0	7001	64.56571171228	0.009876472271
0	7006	64.575588184551	0.026700092497
0	7011	64.602288277048	0.083100180736
0	7017	64.685388457784	0.09281225791
0	7022	64.778200715694	0.150446399273
0	7027	64.928647114967	0.001379638972
0	7029	64.930026753939	0.011343514383
0	7035	64.941370268322	0.055598301939
0	7043	64.996968570261	0.014386376691
0	7048	65.011354946952	0.031331859193
0	7053	65.042686806145	0.004269034079
0	7055	65.046955840224	0.020989055005
0	7063	65.067944895229	0.06000656194
0	7068	65.127951457169	0.03465528625
0	7073	65.162606743419	0.032938045144
0	7078	65.195544788563	0.028292024672
0	7083	65.223836813235	0.014430342919
0	7088	65.238267156154	0.040773888003
0	7093	65.279041044157	0.009814749778
0	7098	65.288855793935	0.005720249762
0	7100	65.294576043697	0.030451230134
0	7110	65.325027273831	0.02192763726
0	7115	65.346954911091	0.019871829829
0	7121	65.36682674092	0.132867029705
0	7126	65.499693770625	0.013447603151
0	7131	65.513141373776	0.035047004314
0	7136	65.54818837809	0.041875338416
0	7141	65.590063716506	0.051288068912
0	7147	65.641351785418	0.058204362856
0	7152	65.699556148274	0.031803523141
0	7157	65.731359671415	0.008951413478
0	7162	65.740311084893	0.17196775864
0	7169	65.912278843533	0.017298551982
0	7174	65.929577395515	0.006187281399
0	7176	65.935764676914	0.213382907766
0	7185	66.14914758468	0.021583325202
0	7190	66.170730909882	0.160483520944
0	7196	66.331214430826	0.057004245204
0	7201	66.38821867603	0.123704989316
0	7207	66.511923665346	0.076955949422
0	7214	66.588879614768	0.022958381919
0	7219	66.611837996687	0.025350189702
0	7224	66.637188186389	0.011185567953
0	7229	66.648373754342	0.067501765626
0	7235	66.715875519968	0.010677856636
0	7241	66.726553376604	0.023314612858
0	7246	66.749867989462	0.008375845328
0	7251	66.75824383479	0.005134833428
0	7253	66.763378668218	0.063810872803
0	7261	66.827189541021	0.000855882022
0	7263	66.828045423043	0.087525690411
0	7272	66.915571113454	0.00763912216
0	7274	66.923210235614	0.068613614687
0	7282	66.991823850301	0.217423477829
0	7290	67.20924732813	0.014466027871
0	7295	67.223713356001	0.010662033058
0	7300	67.234375389059	0.065194716473
0	7306	67.299570105532	0.0004017305
0	7308	67.299971836032	0.05806168382
0	7316	67.358033519852	0.04201809514
0	7321	67.400051614992	0.034615881625
0	7326	67.434667496617	0.032917706211
0	7331	67.467585202828	0.023887764297
0	7336	67.491472967125	0.017684709302
0	7341	67.509157676427	0.091065347002
0	7346	67.600223023429	0.133399301796
0	7352	67.733622325225	0.005426172147
0	7354	67.739048497372	0.060500795202
0	7362	67.799549292574	0.010467285215
0	7367	67.810016577789	0.026740113812
0	7372	67.836756691601	0.099215307135
0	7379	67.935971998736	0.00119816016
0	7381	67.937170158896	0.078479122213
0	7391	68.015649281109	0.058677661972
0	7397	68.074326943081	0.085278519805
0	7402	68.159605462886	0.055881819457
0	7407	68.215487282343	0.053404762946
0	7412	68.268892045289	0.020590162502
0	7417	68.289482207791	0.219273634428
0	7423	68.508755842219	0.179356676911
0	7428	68.68811251913	0.010695303889
0	7433	68.698807823019	0.127027966317
0	7439	68.825835789336	0.028663115526
0	7445	68.854498904862	0.034911157531
0	7450	68.889410062393	0.071011479846
0	7456	68.960421542239	0.093728777314
0	7461	69.054150319553	0.038630602087
0	7466	69.09278092164	0.095533664579
0	7471	69.188314586219	0.046064979638
0	7476	69.234379565857	0.023038601702
0	7481	69.257418167559	0.140563424911
0	7491	69.39798159247	0.248085130843
0	7497	69.646066723313	0.025500835167
0	7502	69.67156755848	0.024659550771
0	7508	69.696227109251	0.090364452074
0	7514	69.786591561325	0.071496373084
0	7520	69.858087934409	0.006505661422
0	7522	69.864593595831	0.030425042828
0	7531	69.895018638659	0.032738735132
0	7537	69.927757373791	0.006093867867
0	7539	69.933851241658	0.064747972883
0	7547	69.998599214541	0.041085049005
0	7553	70.039684263546	0.102850983622
0	7558	70.142535247168	0.061394965021
0	7563	70.203930212189	0.058995690969
0	7568	70.262925903158	0.047330123707
0	7573	70.310256026865	0.024414205062
0	7579	70.334670231927	0.017752675491
0	7584	70.352422907418	0.021943968181
0	7589	70.374366875599	0.109578111254
0	7595	70.483944986853	0.017467197594
0	7600	70.501412184447	0.078726831567
0	7607	70.580139016014	0.044431590495
0	7612	70.624570606509	0.02548453103
0	7617	70.650055137539	0.045567238212
0	7622	70.695622375751	0.016099015576
0	7627	70.711721391327	0.047764322195
0	7633	70.759485713522	0.085985893251
0	7638	70.845471606773	0.075123567407
0	7645	70.92059517418	0.015640965962
0	7650	70.936236140142	0.029872924104
0	7655	70.966109064246	0.01507905761
0	7660	70.981188121856	0.020303048826
0	7665	71.001491170682	0.015601020945
0	7671	71.017092191627	0.005070834581
0	7673	71.022163026208	0.046612161798
0	7681	71.068775188006	0.208219206169
0	7687	71.276994394175	0.0160550899
0	7692	71.293049484075	0.024227779633
0	7697	71.317277263708	0.097712079753
0	7702	71.414989343461	0.027150940553
0	7707	71.442140284014	0.016678983241
0	7712	71.458819267255	0.06839050364
0	7717	71.527209770895	0.146764202573
0	7724	71.673973973468	0.015258799859
0	7730	71.689232773327	0.024838283026
0	7735	71.714071056353	0.055877270967
0	7740	71.76994832732	0.062717338235
0	7746	71.832665665555	0.206496261161
0	7752	72.039161926716	0.009681329539
0	7757	72.048843256255	0.01555705464
0	7762	72.064400310895	0.009664151653
0	7767	72.074064462548	0.016756255961
0	7772	72.090820718509	0.015202698237
0	7778	72.106023416746	0.02886908539
0	7783	72.134892502136	0.016740448716
0	7788	72.151632950852	0.086585290165
0	7795	72.238218241017	0.055013348154
0	7800	72.293231589171	0.016966854096
0	7805	72.310198443267	0.157405311824
0	7811	72.467603755091	0.051712005063
0	7817	72.519315760154	0.05416439144
0	7823	72.573480151594	0.009952215461
0	7828	72.583432367055	0.048820579025
0	7834	72.63225294608	0.091551491181
0	7839	72.723804437261	0.18703962246
0	7846	72.910844059721	0.017303284832
0	7851	72.928147344553	0.018664401991
0	7856	72.946811746544	0.172958431176
0	7864	73.11977017772	0.079564319613
0	7869	73.199334497333	0.004752068395
0	7871	73.204086565728	0.048335336257
0	7880	73.252421901985	0.040620988379
0	7885	73.293042890364	0.048827390859
0	7890	73.341870281223	0.025461196196
0	7895	73.367331477419	0.024942152621
0	7900	73.39227363004	0.011945348809
0	7905	73.404218978849	0.189577845253
0	7911	73.593796824102	0.006488286976
0	7913	73.600285111078	0.018997713893
0	7921	73.619282824971	0.002344185281
0	7923	73.621627010252	0.015526228351
0	7931	73.637153238603	0.019656583168
0	7936	73.656809821771	0.048213674256
0	7941	73.705023496027	0.059525397333
0	7946	73.76454889336	0.003889276998
0	7948	73.768438170358	0.040682075275
0	7956	73.809120245633	0.025303658586
0	7961	73.834423904219	0.013085573154
0	7967	73.847509477373	0.046523109457
0	7972	73.89403258683	0.040476079237
0	7977	73.934508666067	0.042850220694
0	7982	73.977358886761	0.19002387939
0	7988	74.167382766151	0.111116721063
0	7995	74.278499487214	0.133107485192
0	8000	74.411606972406	0.114045624618
0	8005	74.525652597024	0.068374057148
0	8010	74.594026654172	0.0026738104
0	8012	74.596700464572	0.093675133594
0	8021	74.690375598166	0.063529594992
0	8027	74.753905193158	0.042107823651
0	8033	74.796013016809	0.130376182591
0	8039	74.9263891994	0.00119157169
0	8041	74.92758077109	0.017644363908
0	8049	74.945225134998	0.006602580545
0	8051	74.951827715543	0.005934990413
0	8056	74.957762705956	0.08259888304
0	8064	75.040361588996	0.095849286016
0	8070	75.136210875012	0.105355675726
0	8075	75.241566550738	0.038121965327
0	8080	75.279688516065	0.06402098589
0	8086	75.343709501955	0.080931346221
0	8091	75.424640848176	0.012281036792
0	8096	75.436921884968	0.029666812707
0	8101	75.466588697675	0.012237732561
0	8106	75.478826430236	0.119592485569
0	8113	75.598418915805	0.033481347189
0	8118	75.631900262994	0.118843515942
0	8124	75.750743778936	0.024248391293
0	8129	75.774992170229	0.028975224875
0	8134	75.803967395104	0.009057779917
0	8139	75.813025175021	0.09445050049
0	8144	75.907475675511	0.058002323362
0	8151	75.965477998873	0.0824299061
0	8156	76.047907904973	0.010203685645
0	8161	76.058111590618	0.045261879419
0	8166	76.103373470037	0.037768250278
0	8172	76.141141720315	0.019701899742
0	8177	76.160843620057	0.054552042568
0	8182	76.215395662625	0.014038196019
0	8187	76.229433858644	0.050577470313
0	8193	76.280011328957	0.067052706036
0	8198	76.347064034993	0.046949083697
0	8203	76.39401311869	0.070690050197
0	8208	76.464703168887	0.070722129221
0	8213	76.535425298108	0.001012092442
0	8215	76.53643739055	0.002998713618
0	8217	76.539436104168	0.069899200563
0	8229	76.609335304731	0.030268000591
0	8234	76.639603305322	0.01152323494
0	8239	76.651126540262	0.154587968942
0	8247	76.805714509204	0.017250461894
0	8252	76.822964971098	0.062820645813
0	8257	76.885785616911	0.076735332496
0	8262	76.962520949407	0.00412343044
0	8264	76.966644379847	0.048329303637
0	8273	77.014973683484	0.006675917284
0	8276	77.021649600768	0.119389043268
0	8285	77.141038644036	0.15656358648
0	8293	77.297602230516	0.124543374856
0	8298	77.422145605372	0.038242402342
0	8303	77.460388007714	0.008325560198
0	8308	77.468713567912	0.165955972133
0	8313	77.634669540045	0.019435898481
0	8318	77.654105438526	0.130428172975
0	8324	77.784533611501	0.057023092901
0	8329	77.841556704402	0.073437969595
0	8335	77.914994673997	0.068410605301
0	8341	77.983405279298	0.037164084744
0	8346	78.020569364042	0.019865530077
0	8351	78.040434894119	0.096154412215
0	8356	78.136589306334	0.015487852318
0	8361	78.152077158652	0.024015203556
0	8366	78.176092362208	0.083604818022
0	8371	78.25969718023	0.111727593059
0	8377	78.371424773289	1.717179e-06
0	8379	78.371426490468	0.01820481746
0	8387	78.389631307928	0.102393828006
0	8393	78.492025135934	0.006089055873
0	8395	78.498114191807	0.025617797867
0	8403	78.523731989674	0.028335548109
0	8408	78.552067537783	0.034572113393
0	8413	78.586639651176	0.018383280251
0	8418	78.605022931427	0.138023670454
0	8424	78.743046601881	0.002551258109
0	8426	78.74559785999	0.038673678869
0	8434	78.784271538859	0.063137912348
0	8439	78.847409451207	0.031800995871
0	8445	78.879210447078	0.010954324619
0	8450	78.890164771697	0.060009304449
0	8455	78.950174076146	0.028279789641
0	8460	78.978453865787	0.026240974005
0	8465	79.004694839792	0.0053642245
0	8467	79.010059064292	0.044352145627
0	8476	79.054411209919	0.01305420141
0	8481	79.067465411329	0.066826486362
0	8486	79.134291897691	0.053094712628
0	8491	79.187386610319	0.007233348937
0	8493	79.194619959256	0.008012460605
0	8498	79.202632419861	0.058563459961
0	8507	79.261195879822	0.006401779137
0	8509	79.267597658959	0.018882040074
0	8518	79.286479699033	0.122204977514
0	8523	79.408684676547	0.016025906789
0	8528	79.424710583336	0.006477192395
0	8530	79.431187775731	0.031247595729
0	8538	79.46243537146	0.003215639962
0	8540	79.465651011422	0.011053418731
0	8545	79.476704430153	0.043922533578
0	8554	79.520626963731	0.131535136031
0	8560	79.652162099762	0.016649357397
0	8565	79.668811457159	0.127602542694
0	8571	79.796413999853	0.017955216907
0	8576	79.81436921676	0.05105683864
0	8581	79.8654260554	0.099832066008
0	8589	79.965258121408	0.02231742969
0	8594	79.987575551098	0.085920362077
0	8601	80.073495913175	0.032866454336
0	8606	80.106362367511	0.11319847674
0	8611	80.219560844251	0.036543982952
0	8616	80.256104827203	0.124788581587
0	8622	80.38089340879	0.003316277237
0	8624	80.384209686027	0.001209846728
0	8626	80.385419532755	0.010449781691
0	8631	80.395869314446	0.014443735944
0	8639	80.41031305039	0.047478935793
0	8647	80.457791986183	0.002127294045
0	8649	80.459919280228	0.013883008666
0	8654	80.473802288894	0.039412286976
0	8662	80.51321457587	0.005174951703
0	8664	80.518389527573	0.059986537724
0	8673	80.578376065297	0.071789778406
0	8679	80.650165843703	0.138630514409
0	8687	80.788796358112	0.007580492216
0	8689	80.796376850328	0.120679721367
0	8697	80.917056571695	0.003991426536
0	8699	80.921047998231	0.019999090971
0	8708	80.941047089202	0.134499204185
0	8715	81.075546293387	0.18652038547
0	8721	81.262066678857	0.017482284884
0	8726	81.279548963741	0.031957704405
0	8731	81.311506668146	0.086454999544
0	8736	81.39796166769	0.065979018708
0	8742	81.463940686398	0.012618468046
0	8748	81.476559154444	0.00485983221
0	8750	81.481418986654	0.053837124712
0	8758	81.535256111366	0.01806596752
0	8764	81.553322078886	0.053501429333
0	8771	81.606823508219	0.00945748651
0	8776	81.616280994729	0.095866603799
0	8782	81.712147598528	0.020187158871
0	8787	81.732334757399	0.004899351172
0	8789	81.737234108571	0.030645089396
0	8797	81.767879197967	0.038018689068
0	8803	81.805897887035	0.028886699245
0	8808	81.83478458628	0.061902947811
0	8814	81.896687534091	0.126904480221
0	8819	82.023592014312	0.016372327508
0	8824	82.03996434182	0.002913433999
0	8826	82.042877775819	0.041458206407
0	8835	82.084335982226	0.005750993037
0	8837	82.090086975263	0.006264896024
0	8842	82.096351871287	0.027445972219
0	8850	82.123797843506	0.026451348738
0	8855	82.150249192244	0.078396165448
0	8860	82.228645357692	0.048471077362
0	8865	82.277116435054	0.09947840373
0	8870	82.376594838784	0.042874918279
0	8875	82.419469757063	0.224896176402
0	8882	82.644365933465	0.00877721846
0	8887	82.653143151925	0.090192642359
0	8893	82.743335794284	0.010254048237
0	8898	82.753589842521	0.000808377803
0	8900	82.754398220324	0.027422692139
0	8908	82.781820912463	0.108197512533
0	8913	82.890018424996	0.002339519825
0	8915	82.892357944821	0.024326244106
0	8923	82.916684188927	0.135053918755
0	8928	83.051738107682	0.021240901605
0	8933	83.072979009287	0.00282693994
0	8935	83.075805949227	0.005611246847
0	8937	83.081417196074	0.08045357004
0	8948	83.161870766114	0.015043560672
0	8953	83.176914326786	0.188387037145
0	8960	83.365301363931	0.057096112404
0	8965	83.422397476335	0.068065125429
0	8970	83.490462601764	0.030887185042
0	8975	83.521349786806	0.015201302291
0	8980	83.536551089097	0.002001063446
0	8982	83.538552152543	0.070080000896
0	8991	83.608632153439	0.021438461709
0	8998	83.630070615148	0.030090600595
0	9003	83.660161215743	0.044042136365
0	9008	83.704203352108	0.020101352674
0	9013	83.724304704782	0.074696618148
0	9018	83.79900132293	0.103119787604
0	9023	83.902121110534	0.051123476285
0	9028	83.953244586819	0.082096686534
0	9033	84.035341273353	0.103428929976
0	9039	84.138770203329	0.016688128034
0	9044	84.155458331363	0.049784555999
0	9050	84.205242887362	0.01616068578
0	9055	84.221403573142	0.072216026937
0	9061	84.293619600079	0.029466962568
0	9066	84.323086562647	0.044354036757
0	9071	84.367440599404	0.006114854072
0	9073	84.373555453476	0.016575744259
0	9081	84.390131197735	0.023462630838
0	9088	84.413593828573	0.111690192019
0	9095	84.525284020592	0.034019040633
0	9100	84.559303061225	0.019195370155
0	9105	84.57849843138	0.056643985127
0	9112	84.635142416507	0.09910683224
0	9117	84.734249248747	0.003492071468
0	9119	84.737741320215	0.036283341977
0	9127	84.774024662192	0.008743499547
0	9132	84.782768161739	0.208193240009
0	9138	84.990961401748	0.023847251745
0	9143	85.014808653493	0.02130889182
0	9148	85.036117545313	0.031675453299
0	9153	85.067792998612	0.130013302663
0	9158	85.197806301275	0.159042873636
0	9164	85.356849174911	0.023456010617
0	9169	85.380305185528	0.110977321329
0	9176	85.491282506857	0.03290835305
0	9181	85.524190859907	0.049666598488
0	9187	85.573857458395	0.074270070001
0	9193	85.648127528396	0.082523747752
0	9199	85.730651276148	0.003162083188
0	9201	85.733813359336	0.000880957391
0	9203	85.734694316727	0.070208842233
0	9214	85.80490315896	0.02617966755
0	9219	85.83108282651	0.060887724871
0	9224	85.891970551381	0.130670934738
0	9230	86.022641486119	0.137768429037
0	9235	86.160409915156	0.044124842814
0	9240	86.20453475797	0.047916240277
0	9245	86.252450998247	0.002753073441
0	9247	86.255204071688	0.12071969627
0	9255	86.375923767958	0.049784683043
0	9260	86.425708451001	0.003579311283
0	9262	86.429287762284	0.022285043843
0	9271	86.451572806127	0.071801795543
0	9276	86.52337460167	0.03579095673
0	9281	86.5591655584	0.005761847679
0	9283	86.564927406079	0.014970317116
0	9291	86.579897723195	0.004430695518
0	9293	86.584328418713	0.007486003429
0	9298	86.591814422142	0.007781490173
0	9304	86.599595912315	0.022648014469
0	9312	86.622243926784	0.003033241386
0	9314	86.62527716817	0.005143111321
0	9319	86.630420279491	0.128378413026
0	9329	86.758798692517	0.024423026037
0	9334	86.783221718554	0.015327868111
0	9339	86.798549586665	0.131766204117
0	9344	86.930315790782	0.008730740496
0	9349	86.939046531278	0.039929072369
0	9355	86.978975603647	0.008100082799
0	9360	86.987075686446	0.012244689355
0	9365	86.999320375801	0.065520942872
0	9370	87.064841318673	0.067200142206
0	9375	87.132041460879	0.002972678629
0	9377	87.135014139508	0.066471689758
0	9385	87.201485829266	0.057927595094
0	9392	87.25941342436	0.079927226189
0	9398	87.339340650549	0.135615470383
0	9405	87.474956120932	0.057145565859
0	9410	87.532101686791	0.054527140771
0	9416	87.586628827562	0.193106827319
0	9422	87.779735654881	0.020447127651
0	9427	87.800182782532	0.009702228858
0	9432	87.80988501139	0.024518093136
0	9437	87.834403104526	0.026840550625
0	9443	87.861243655151	0.078543911713
0	9449	87.939787566864	0.034252496407
0	9455	87.974040063271	0.007840469558
0	9457	87.981880532829	0.011366075929
0	9465	87.993246608758	0.011092631498
0	9470	88.004339240256	0.024147934753
0	9475	88.028487175009	0.134815543436
0	9482	88.163302718445	0.142667132224
0	9487	88.305969850669	0.038360674697
0	9492	88.344330525366	0.043661574353
0	9497	88.387992099719	0.032712704926
0	9502	88.420704804645	0.078491606314
0	9508	88.499196410959	0.004127615605
0	9510	88.503324026564	0.01660710813
0	9518	88.519931134694	0.024040651923
0	9523	88.543971786617	0.048546833548
0	9528	88.592518620165	0.046460298011
0	9533	88.638978918176	0.012886866812
0	9538	88.651865784988	0.004051425358
0	9540	88.655917210346	0.012273018217
0	9548	88.668190228563	0.015915715497
0	9553	88.68410594406	0.173131568802
0	9558	88.857237512862	0.101623425755
0	9565	88.958860938617	0.017575146175
0	9570	88.976436084792	0.019972991214
0	9575	88.996409076006	0.01279920127
0	9581	89.009208277276	0.013202734808
0	9586	89.022411012084	0.01642807438
0	9591	89.038839086464	0.023167257117
0	9596	89.062006343581	0.00137779658
0	9598	89.063384140161	0.00149970196
0	9600	89.064883842121	0.04192501918
0	9611	89.106808861301	0.039873575676
0	9616	89.146682436977	0.008916222982
0	9621	89.155598659959	0.111081505638
0	9628	89.266680165597	0.02616763168
0	9633	89.292847797277	0.000156990095
0	9635	89.293004787372	0.066948710568
0	9643	89.35995349794	0.04863007394
0	9648	89.40858357188	0.099417609456
0	9654	89.508001181336	0.001319031975
0	9656	89.509320213311	0.012949375279
0	9661	89.52226958859	0.041427636607
0	9669	89.563697225197	0.036129380856
0	9674	89.599826606053	0.100391959898
0	9679	89.700218565951	0.004187297984
0	9681	89.704405863935	0.06121438482
0	9689	89.765620248755	0.00676879586
0	9691	89.772389044615	0.234916815552
0	9703	90.007305860167	0.02409607868
0	9708	90.031401938847	0.014244105733
0	9713	90.04564604458	0.053190882867
0	9718	90.098836927447	0.025363505458
0	9725	90.124200432905	0.017963343517
0	9730	90.142163776422	0.030123859138
0	9735	90.17228763556	0.004439581853
0	9737	90.176727217413	0.009199607571
0	9742	90.185926824984	0.028519319495
0	9750	90.214446144479	0.00301364443
0	9752	90.217459788909	0.035261606231
0	9760	90.25272139514	0.097261178362
0	9767	90.349982573502	0.105476910644
0	9772	90.455459484146	0.088377971912
0	9777	90.543837456058	0.019253903728
0	9782	90.563091359786	0.016035588765
0	9787	90.579126948551	0.019287542955
0	9792	90.598414491506	0.110027000423
0	9798	90.708441491929	0.003303418629
0	9800	90.711744910558	0.082115018673
0	9808	90.793859929231	0.026053709157
0	9813	90.819913638388	0.143248246263
0	9822	90.963161884651	0.010160474995
0	9827	90.973322359646	0.018679279145
0	9832	90.992001638791	0.043557697944
0	9837	91.035559336735	0.025242805045
0	9842	91.06080214178	0.030088365578
0	9847	91.090890507358	0.146824639543
0	9852	91.237715146901	0.012008470045
0	9857	91.249723616946	0.004390795133
0	9859	91.254114412079	0.000847726659
0	9861	91.254962138738	0.028739608445
0	9872	91.283701747183	0.238913723836
0	9878	91.522615471019	0.012606743063
0	9883	91.535222214082	0.187105664187
0	9888	91.722327878269	0.00421167752
0	9890	91.726539555789	0.006432987094
0	9896	91.732972542883	0.009536600065
0	9901	91.742509142948	0.104632306501
0	9911	91.847141449449	0.238893798576
0	9916	92.086035248025	0.22330480591
0	9924	92.309340053935	0.004258986334
0	9926	92.313599040269	0.014444544402
0	9934	92.328043584671	0.11251284272
0	9940	92.440556427391	0.091207700005
0	9946	92.531764127396	0.110741118414
0	9953	92.64250524581	0.036919228469
0	9958	92.679424474279	0.172185808006
0	9967	92.851610282285	0.037231421494
0	9972	92.888841703779	0.008806213317
0	9977	92.897647917096	0.004630749828
0	9979	92.902278666924	0.01278291647
0	9987	92.915061583394	0.030268049364
0	9992	92.945329632758	0.021917146709
0	9997	92.967246779467	0.237210058744
0	10006	93.204456838211	0.089084659737
0	10012	93.293541497948	0.00712907334
0	10017	93.300670571288	0.014403879666
0	10022	93.315074450954	0.097350229608
0	10027	93.412424680562	0.02899620287
0	10032	93.441420883432	0.106879063591
0	10039	93.548299947023	0.039235335404
0	10044	93.587535282427	0.004475581636
0	10046	93.592010864063	0.000808833581
0	10048	93.592819697644	0.063031400064
0	10059	93.655851097708	0.031743260665
0	10064	93.687594358373	0.000555126887
0	10066	93.68814948526	0.027303119873
0	10074	93.715452605133	0.02281554277
0	10079	93.738268147903	0.004228288629
0	10081	93.742496436532	0.103489746367
0	10090	93.845986182899	0.071572027343
0	10096	93.917558210242	0.107975578333
0	10102	94.025533788575	0.050940772411
0	10107	94.076474560986	0.181857270976
0	10114	94.258331831962	0.040250219766
0	10119	94.298582051728	0.030569169122
0	10124	94.32915122085	0.012845755285
0	10130	94.341996976135	0.016542353065
0	10135	94.3585393292	0.039492324636
0	10140	94.398031653836	0.035521735786
0	10145	94.433553389622	0.055468536863
0	10151	94.489021926485	0.028406281681
0	10156	94.517428208166	0.044874458896
0	10161	94.562302667062	0.054612180487
0	10166	94.616914847549	0.010747408959
0	10171	94.627662256508	0.137858864058
0	10176	94.765521120566	0.030154661235
0	10182	94.795675781801	0.029772198982
0	10187	94.825447980783	0.024710797988
0	10192	94.850158778771	0.106132302197
0	10197	94.956291080968	0.036494343909
0	10202	94.992785424877	0.083670627195
0	10207	95.076456052072	0.075502950373
0	10213	95.151959002445	0.010596465876
0	10218	95.162555468321	0.057419743201
0	10224	95.219975211522	0.054060690052
0	10229	95.274035901574	0.021538270717
0	10234	95.295574172291	0.093856272471
0	10240	95.389430444762	0.004044746053
0	10242	95.393475190815	0.052872376817
0	10251	95.446347567632	0.021861446993
0	10257	95.468209014625	0.089460572191
0	10262	95.557669586816	0.042299785487
0	10269	95.599969372303	0.030692931744
0	10274	95.630662304047	0.052940163422
0	10279	95.683602467469	0.032159242846
0	10284	95.715761710315	0.036987264157
0	10290	95.752748974472	0.071373874344
0	10295	95.824122848816	0.007014450943
0	10297	95.831137299759	0.046808445941
0	10305	95.8779457457	0.026400927522
0	10310	95.904346673222	0.100936051205
0	10315	96.005282724427	0.005884376861
0	10317	96.011167101288	0.028819906369
0	10325	96.039987007657	0.043451971682
0	10330	96.083438979339	0.091548289232
0	10335	96.174987268571	0.009187120678
0	10340	96.184174389249	0.050536695062
0	10346	96.234711084311	0.003578553746
0	10348	96.238289638057	0.018090279604
0	10356	96.256379917661	0.099454805983
0	10361	96.355834723644	0.06304083316
0	10366	96.418875556804	0.099630495094
0	10372	96.518506051898	0.095823709212
0	10378	96.61432976111	0.024292688822
0	10383	96.638622449932	0.017113676276
0	10389	96.655736126208	0.008810915307
0	10394	96.664547041515	0.009470730786
0	10399	96.674017772301	0.00250088322
0	10401	96.676518655521	0.044763797605
0	10409	96.721282453126	0.020400668881
0	10415	96.741683122007	0.179140645219
0	10423	96.920823767226	0.106799049262
0	10428	97.027622816488	0.027992503049
0	10433	97.055615319537	0.108376229849
0	10439	97.163991549386	0.004244945217
0	10441	97.168236494603	0.024508621998
0	10449	97.192745116601	0.009627469417
0	10454	97.202372586018	0.042571356833
0	10460	97.244943942851	0.067577346048
0	10465	97.312521288899	0.109031529619
0	10470	97.421552818518	0.003846956462
0	10472	97.42539977498	0.016589486806
0	10480	97.441989261786	0.026161830118
0	10485	97.468151091904	0.022671963372
0	10490	97.490823055276	0.029211784726
0	10495	97.520034840002	0.006811602752
0	10497	97.526846442754	0.120736444136
0	10507	97.64758288689	0.035061272802
0	10512	97.682644159692	0.002843865597
0	10514	97.685488025289	0.039866321864
0	10522	97.725354347153	0.001623552101
0	10524	97.726977899254	0.167616441943
0	10533	97.894594341197	0.117805741894
0	10540	98.012400083091	0.04189997528
0	10545	98.054300058371	0.031820595285
0	10550	98.086120653656	0.114283087995
0	10557	98.200403741651	0.007563384807
0	10559	98.207967126458	0.085691867775
0	10567	98.293658994233	0.074902760385
0	10572	98.368561754618	0.01809341742
0	10577	98.386655172038	0.018796938001
0	10583	98.405452110039	0.034264521148
0	10588	98.439716631187	0.050660090618
0	10593	98.490376721805	0.019409381813
0	10598	98.509786103618	0.043100778091
0	10603	98.552886881709	0.044783030735
0	10608	98.597669912444	0.010129127884
0	10613	98.607799040328	0.007592885189
0	10615	98.615391925517	0.097480147587
0	10623	98.712872073104	0.101799515144
0	10629	98.814671588248	0.027653963818
0	10635	98.842325552066	0.071308439121
0	10642	98.913633991187	0.069199026489
0	10648	98.982833017676	0.081909331901
0	10653	99.064742349577	0.130982483875
0	10660	99.195724833452	0.085724826574
0	10667	99.281449660026	0.019059715331
0	10672	99.300509375357	0.07555963923
0	10677	99.376069014587	0.085100316582
0	10682	99.461169331169	0.003970190738
0	10684	99.465139521907	0.047419917566
0	10693	99.512559439473	0.0447365298
0	10699	99.557295969273	0.014674825475
0	10704	99.571970794748	0.08451676617
0	10709	99.656487560918	0.060216715868
0	10715	99.716704276786	0.19523232655
0	10722	99.911936603336	0.006929323794
0	10724	99.91886592713	0.042237087614
0	10733	99.961103014744	0.026256518497
0	10738	99.987359533241	0.076543790763
0	10743	100.063903324004	0.005062978589
0	10745	100.068966302593	0.06802145629
0	10753	100.136987758883	0.008222453853
0	10758	100.145210212736	0.017458488268
0	10763	100.162668701004	0.018116077178
0	10768	100.180784778182	0.048739850188
0	10773	100.22952462837	0.065996240112
0	10779	100.295520868482	0.005567757387
0	10781	100.301088625869	0.00725822764
0	10786	100.308346853509	0.011192563619
0	10795	100.319539417128	0.150153747726
0	10803	100.469693164854	0.024334452682
0	10808	100.494027617536	0.024219856803
0	10813	100.518247474339	0.077104455546
0	10821	100.595351929885	0.015559796283
0	10826	100.610911726168	0.048817993763
0	10831	100.659729719931	0.013315822513
0	10836	100.673045542444	0.001290648737
0	10838	100.674336191181	0.020382033718
0	10846	100.694718224899	0.071167387027
0	10854	100.765885611926	0.017146717928
0	10859	100.783032329854	0.009576584509
0	10864	100.792608914363	0.006153950761
0	10866	100.798762865124	0.004216720106
0	10871	100.80297958523	0.01078830801
0	10876	100.81376789324	0.102264053197
0	10884	100.916031946437	0.101767498041
0	10889	101.017799444478	0.001526963663
0	10891	101.019326408141	0.050803415676
0	10900	101.070129823817	0.049998965591
0	10905	101.120128789408	0.014903085072
0	10910	101.13503187448	0.041968823216
0	10917	101.177000697696	0.113675545814
0	10922	101.29067624351	0.026379485867
0	10927	101.317055729377	0.061058274647
0	10932	101.378114004024	0.053892803592
0	10937	101.432006807616	0.022687300313
0	10942	101.454694107929	0.041316121377
0	10947	101.496010229306	0.20085430836
0	10953	101.696864537666	0.039022536705
0	10958	101.735887074371	0.015175961852
0	10963	101.751063036223	0.011412524667
0	10968	101.76247556089	0.028373190851
0	10973	101.790848751741	0.018721519085
0	10978	101.809570270826	0.035760364576
0	10983	101.845330635402	0.083035424768
0	10988	101.92836606017	0.12178213577
0	10994	102.05014819594	0.019536618332
0	10999	102.069684814272	0.039556386812
0	11004	102.109241201084	0.110161518592
0	11010	102.219402719676	0.068985638481
0	11016	102.288388358157	0.045012923107
0	11022	102.333401281264	0.006309750221
0	11024	102.339711031485	0.008459305146
0	11032	102.348170336631	0.101044911728
0	11038	102.449215248359	0.020114129522
0	11043	102.469329377881	0.177855944216
0	11050	102.647185322097	0.03463424522
0	11055	102.681819567317	0.109560104937
0	11061	102.791379672254	0.09341386037
0	11068	102.884793532624	0.011642336032
0	11073	102.896435868656	0.040888631323
0	11078	102.937324499979	0.139056223286
0	11084	103.076380723265	0.035508638203
0	11089	103.111889361468	0.018871586597
0	11094	103.130760948065	0.033759983483
0	11099	103.164520931548	0.002754350397
0	11101	103.167275281945	0.152790063275
0	11111	103.32006534522	0.002764990473
0	11113	103.322830335693	0.020775326935
0	11121	103.343605662628	0.183614444921
0	11127	103.527220107549	0.010791913485
0	11132	103.538012021034	0.029991410086
0	11137	103.56800343112	0.056204810563
0	11143	103.624208241683	0.125414872573
0	11149	103.749623114256	0.113501503185
0	11155	103.863124617441	0.00185812028
0	11157	103.864982737721	0.030665311609
0	11165	103.89564804933	0.070913458655
0	11173	103.966561507985	0.032665164064
0	11178	103.999226672049	0.007364158611
0	11183	104.00659083066	0.04289158877
0	11188	104.04948241943	0.018348340944
0	11193	104.067830760374	0.170207754187
0	11201	104.238038514561	0.029774531512
0	11206	104.267813046073	0.010290792682
0	11212	104.278103838755	0.089013114974
0	11219	104.367116953729	0.127991273164
0	11224	104.495108226893	0.103439038146
0	11229	104.598547265039	0.005875588594
0	11231	104.604422853633	0.062710633203
0	11239	104.667133486836	0.107544754186
0	11245	104.774678241022	0.019591494157
0	11250	104.794269735179	0.022647620274
0	11255	104.816917355453	0.086837996544
0	11260	104.903755351997	0.042989934655
0	11265	104.946745286652	0.012038218986
0	11270	104.958783505638	0.027027985782
0	11275	104.98581149142	0.044023224965
0	11280	105.029834716385	0.067834745655
0	11285	105.09766946204	0.001497189761
0	11288	105.099166651801	0.059038075885
0	11296	105.158204727686	0.105381586739
0	11302	105.263586314425	0.00058688343
0	11304	105.264173197855	0.050557781885
0	11312	105.31473097974	0.02423880987
0	11317	105.33896978961	0.013891272047
0	11323	105.352861061657	0.105126142322
0	11329	105.457987203979	0.022013153423
0	11334	105.480000357402	0.068564180639
0	11339	105.548564538041	0.034210945445
0	11344	105.582775483486	0.010104944703
0	11349	105.592880428189	0.078216002116
0	11355	105.671096430305	0.03453282835
0	11360	105.705629258655	0.03340575475
0	11365	105.739035013405	0.113553373395
0	11371	105.8525883868	0.054074391436
0	11376	105.906662778236	0.016910936215
0	11381	105.923573714451	0.000359490984
0	11383	105.923933205435	0.050444492479
0	11391	105.974377697914	0.015713961305
0	11396	105.990091659219	0.109776476552
0	11402	106.099868135771	0.057793142953
0	11407	106.157661278724	0.144351533733
0	11413	106.302012812457	0.2721145099
0	11421	106.574127322357	0.025814849792
0	11426	106.599942172149	0.039892188109
0	11431	106.639834360258	0.019034524369
0	11436	106.658868884627	0.012834878961
0	11441	106.671703763588	0.061439062767
0	11446	106.733142826355	0.054545744961
0	11452	106.787688571316	0.048866209601
0	11458	106.836554780917	0.120488805363
0	11468	106.95704358628	0.049545888931
0	11473	107.006589475211	0.075171554316
0	11478	107.081761029527	0.113601579134
0	11484	107.195362608661	0.007039980231
0	11486	107.202402588892	0.083684941684
0	11494	107.286087530576	0.021472079259
0	11499	107.307559609835	0.027049238764
0	11504	107.334608848599	0.022690810796
0	11509	107.357299659395	0.04863825485
0	11514	107.405937914245	0.136285616886
0	11520	107.542223531131	0.022732787043
0	11525	107.564956318174	0.024324553822
0	11530	107.589280871996	0.040020469037
0	11535	107.629301341033	0.035975649126
0	11540	107.665276990159	0.042370824123
0	11546	107.707647814282	0.022667355238
0	11551	107.73031516952	0.071965635435
0	11557	107.802280804955	0.20041870654
0	11563	108.002699511495	0.085458357125
0	11571	108.08815786862	0.010672515462
0	11576	108.098830384082	0.013724783252
0	11581	108.112555167334	0.008040148376
0	11586	108.12059531571	0.001923609663
0	11588	108.122518925373	0.021096992038
0	11597	108.143615917411	0.006368607144
0	11599	108.149984524555	0.003439425244
0	11605	108.153423949799	0.039063998483
0	11613	108.192487948282	0.067742999104
0	11619	108.260230947386	0.032214901439
0	11624	108.292445848825	0.00377924036
0	11626	108.296225089185	0.010950132739
0	11631	108.307175221924	0.082557672634
0	11640	108.389732894558	0.032274468479
0	11645	108.422007363037	0.154430520651
0	11650	108.576437883688	0.062136569261
0	11657	108.638574452949	0.036772895257
0	11662	108.675347348206	0.02849858359
0	11668	108.703845931796	0.093507879696
0	11673	108.797353811492	0.02012318709
0	11678	108.817476998582	0.051298939165
0	11685	108.868775937747	0.115568866829
0	11692	108.984344804576	0.017522461228
0	11697	109.001867265804	0.066843910586
0	11702	109.06871117639	0.079614493347
0	11708	109.148325669737	0.058251340705
0	11713	109.206577010442	0.166806338317
0	11720	109.373383348759	0.046420648479
0	11725	109.419803997238	0.110214868765
0	11730	109.530018866003	0.08861795006
0	11735	109.618636816063	0.019812765916
0	11740	109.638449581979	0.065388573095
0	11745	109.703838155074	0.033837552264
0	11750	109.737675707338	0.028080977885
0	11755	109.765756685223	0.00198667849
0	11757	109.767743363713	0.00841151839
0	11762	109.776154882103	0.060226727627
0	11770	109.83638160973	0.010762036261
0	11775	109.847143645991	0.015074154699
0	11780	109.86221780069	0.03963620868
0	11785	109.90185400937	0.026174458131
0	11790	109.928028467501	0.01379555982
0	11795	109.941824027321	0.02172176461
0	11800	109.963545791931	0.029219206596
0	11806	109.992764998527	0.005043283125
0	11808	109.997808281652	0.0707007113
0	11816	110.068508992952	0.005554066819
0	11818	110.074063059771	0.034624285131
0	11827	110.108687344902	0.063769783159
0	11832	110.172457128061	0.085738161965
0	11837	110.258195290026	0.034428024492
0	11843	110.292623314518	0.55693822094
0	11853	110.849561535458	0.053038369232
0	11858	110.90259990469	0.014069124757
0	11863	110.916669029447	0.045216926323
0	11869	110.96188595577	0.026207823083
0	11874	110.988093778853	0.026624829241
0	11879	111.014718608094	0.024057619966
0	11885	111.03877622806	0.006765514845
0	11887	111.045541742905	0.046313525192
0	11896	111.091855268097	0.012109507813
0	11902	111.10396477591	0.008164636056
0	11908	111.112129411966	0.011916391194
0	11913	111.12404580316	0.090932167315
0	11918	111.214977970475	0.075855433916
0	11923	111.290833404391	0.073404825583
0	11928	111.364238229974	0.094218778448
0	11934	111.458457008422	0.05454140993
0	11940	111.512998418352	0.190014987149
0	11948	111.703013405501	0.000155815662
0	11950	111.703169221163	0.047670835228
0	11958	111.750840056391	0.026121659753
0	11963	111.776961716144	0.043982158394
0	11969	111.820943874538	0.115397925856
[...]
19	19660	186.985260228849	6.0005798931919
19	20350	192.985840122041	3.0493301857625
19	20656	196.035170307803	1.7374239060568
19	20840	197.77259421386	1.9128309714299
19	21048	199.68542518529	0.172501069495
19	21060	199.857926254785	0.98192529911755
19	21156	200.839851553903	1.6499825509666
19	21332	202.48983410487	0.61734312873762
19	21392	203.107177233608	0.060641813587989
19	21407	203.167819047196	0.71371528588573
19	21511	203.881534333082	3.6279599748288
19	21955	207.509494307911	6.9108287506383
19	22750	214.420323058549	1.1827216959398
19	22881	215.603044754489	1.0807006781682
19	22942	216.683745432657	1.2759113585873
19	23084	217.959656791244	0.087736730437679
19	23085	218.047393521682	3.7850088471806
19	23513	221.832402368863	7.2251648669734
19	24261	229.057567235836	3.9394824007918
19	24696	232.997049636628	0.019044217173143
19	24697	233.016093853801	3.225707845107
19	25151	236.241801698908	0.70817512794787
19	25248	236.949976826856	4.728916246776
19	25688	241.678893073632	3.551349413398
19	25976	245.23024248703	5.8964580811197
19	26604	251.12670056815	2.6101995787262
19	26872	253.736900146876	1.1505457233182
19	27004	254.887445870194	0.10743575430801
19	27020	254.994881624502	7.486042814172
19	27799	262.480924438674	5.223427094554
19	28413	267.704351533228	3.7514445874155
19	28741	271.455796120643	0.76590614599385
19	28819	272.221702266637	0.27584872658913
19	28851	272.497550993226	8.1006249474163
19	29753	280.598175940642	8.0112174574758
19	30582	288.609393398118	1.4336717958881
19	30730	290.043065194006	0.042018464229055
19	30731	290.085083658235	3.7279432197957
19	31115	293.813026878031	0.70311906145212
19	31172	294.516145939483	2.5148780197996
19	31373	297.031023959283	1.1796789891654
19	31494	298.210702948448	0.92663945729487
19	31584	299.137342405743	3.4340181443414
19	31984	302.571360550084	1.1803722817456
19	32061	303.75173283183	10.076071431509
19	33161	313.827804263339	1.2651599473785
19	33306	315.092964210718	1.34182841093
19	33508	316.434792621648	0.54891153161827
19	33557	316.983704153266	0.07370843684235
19	33561	317.057412590108	0.21035165084456
19	33599	317.267764240953	0.051508260995867
19	33604	317.319272501949	0.33296859331461
19	33627	317.652241095264	4.2103558964418
19	34112	321.862596991706	0.59479902633241
19	34217	322.457396018038	2.7819535629569
19	34553	325.239349580995	2.5907683378414
19	34795	327.830117918836	0.13925040760743
19	34802	327.969368326443	2.1039378498255
19	35041	330.073306176269	0.20524706743739
19	35070	330.278553243706	4.5256918744864
19	35489	334.804245118192	0.37569484552357
19	35521	335.179939963716	0.0024863078325941
19	35522	335.182426271549	1.3322826434874
19	35669	336.514708915036	4.3404056682667
19	36162	340.855114583303	0.33067560671938
19	36205	341.185790190022	0.22343750277342
19	36224	341.409227692795	0.42842178162502
19	36294	341.83764947442	1.7210229302511
19	36483	343.558672404671	2.0826340766583
19	36719	345.641306481329	2.9997553381076
19	37062	348.641061819437	1.929114942303
19	37241	350.57017676174	0.81742133661444
19	37314	351.387598098354	3.3426162382959
19	37655	354.73021433665	0.43445072964518
19	37727	355.164665066295	1.6613648080606
19	37893	356.826029874356	8.0149341929967
19	38785	364.840964067353	1.2423785447199
19	38915	366.083342612073	1.0237683656354
19	39051	367.107110977708	0.37931541283394
19	39061	367.486426390542	0.079069559033854
19	39062	367.565495949576	0.90273535985791
19	39147	368.468231309434	2.8067885350795
19	39484	371.275019844513	1.740140597148
19	39680	373.015160441661	1.084464051222
19	39776	374.099624492883	0.29965214070067
19	39795	374.399276633584	5.4172262833801
19	40395	379.816502916964	4.7426704975353
19	40898	384.559173414499	0.15549417877006
19	40923	384.714667593269	3.0413708142314
19	41221	387.7560384075	0.35565399170727
19	41246	388.111692399207	0.030945323993097
19	41247	388.1426377232	9.0010343226365
19	42060	397.143672045836	2.2865686772465
19	42339	399.430240723083	1.786777110445
20	1437	13.137539900947	2.1890390097064
20	1654	15.326578910653	1.7692466944322
20	1839	17.095825605085	0.454829743626
20	1919	17.550655348711	3.3711440187533
20	2314	20.921799367464	5.1906929832234
20	2905	26.112492350687	9.0086486810069
20	3841	35.121141031694	2.6947424314664
20	4157	37.81588346316	2.6908387988815
20	4435	40.506722262042	4.389773224991
20	4941	44.896495487033	0.68447597763442
20	4996	45.580971464667	0.21877165777817
20	5024	45.799743122445	0.40300748586873
20	5053	46.202750608314	0.034713302708781
20	5054	46.237463911023	2.5983919876969
20	5328	48.83585589872	0.81043311775157
20	5406	49.646289016472	2.6601253837878
20	5696	52.30641440026	3.9566750977904
20	6080	56.26308949805	1.2688084424075
20	6222	57.531897940458	7.0050530296134
20	6992	64.536950970071	2.0416670055365
20	7213	66.578617975608	0.49550255713598
20	7288	67.074120532744	2.267751664125
20	7490	69.341872196869	5.4709834318895
20	8038	74.812855628759	0.25539023842861
20	8069	75.068245867188	3.4216431280665
20	8392	78.489888995254	0.7882192851213
20	8517	79.278108280375	2.4285574895578
20	8781	81.706665769933	2.3598971743162
20	9038	84.066562944249	1.2634365994907
20	9163	85.32999954374	1.3195121867763
20	9327	86.649511730516	6.8414730988274
20	10038	93.490984829343	0.4191857149705
20	10095	93.910170544313	0.85621780273001
20	10178	94.766388347043	5.9475076327613
20	10851	100.713895979804	1.8047728719099
20	11049	102.518668851714	0.75056680787964
20	11110	103.269235659594	0.53008650630756
20	11154	103.799322165902	6.6469875487413
20	11850	110.446309714643	3.2727891059794
20	12087	113.719098820622	2.4207187546032
20	12377	116.139817575225	0.78164435747619
20	12445	116.921461932701	0.06470030652786
20	12452	116.986162239229	4.2720038939371
20	12881	121.258166133166	2.0943646662978
20	13128	123.352530799464	0.10218727712807
20	13136	123.454718076592	1.1532708960443
20	13294	124.607988972636	0.29282004353396
20	13322	124.90080901617	0.18569681108304
20	13340	125.086505827253	0.19497125366978
20	13363	125.281477080923	2.2989604795738
20	13578	127.580437560497	4.99595301467
20	14103	132.576390575167	0.6717810725311
20	14173	133.248171647698	0.28900247232308
20	14212	133.537174120021	0.12167356206973
20	14219	133.658847682091	0.30416977392272
20	14264	133.963017456014	2.2271124173121
20	14508	136.190129873326	0.19142579942697
20	14517	136.381555672753	2.4955095782615
20	14842	138.877065251014	1.2441143719809
20	14985	140.121179622995	1.0309142783269
20	15082	141.152093901322	1.3978362005174
20	15246	142.549930101839	0.67219080901068
20	15298	143.22212091085	0.048528121497719
20	15305	143.270649032348	2.9600981963779
20	15584	146.230747228726	0.12753804409782
20	15591	146.358285272824	1.0494498412832
20	15713	147.407735114107	3.0381305220289
20	16008	150.445865636136	2.1332563691251
20	16211	152.579122005261	1.5744880571048
20	16437	154.153610062366	0.16442469497207
20	16463	154.318034757338	4.2115334421894
20	16906	158.529568199527	0.67845964784894
20	16976	159.208027847376	0.023568902198615
20	16980	159.231596749575	7.5870478745995
20	17757	166.818644624174	0.0062579592017242
20	17758	166.824902583376	0.1169789060448
20	17780	166.941881489421	1.8814805631123
20	17942	168.823362052533	6.0651453643035
20	18507	174.888507416836	0.95417678327997
20	18603	175.842684200116	0.015439941503999
20	18609	175.85812414162	2.9496353460076
20	18899	178.807759487628	1.4297270508755
20	19000	180.237486538504	0.3398555509549
20	19046	180.577342089459	1.8345567512232
20	19229	182.411898840682	1.2727722423345
20	19284	183.684671083016	17.797918339339
20	21230	201.482589422355	0.082379300611458
20	21238	201.564968722966	0.17231883188596
20	21254	201.737287554852	0.95705524565781
20	21343	202.69434280051	3.5831643278467
20	21809	206.277507128357	1.9694058485842
20	22017	208.246912976941	1.8915134493666
20	22249	210.138426426308	2.1628126506534
20	22484	212.301239076961	1.3562628771187
20	22635	213.65750195408	0.31846245402557
20	22670	213.975964408106	0.36537455403224
20	22733	214.341338962138	1.5667184972772
20	22897	215.908057459415	0.1346376720583
20	22909	216.042695131473	3.7338818192342
20	23299	219.776576950707	1.1113129740447
20	23406	220.887889924752	1.2110104759454
20	23551	222.098900400697	0.77687576419322
20	23620	222.87577616489	2.2171820558165
20	23849	225.092958220707	1.7976479454005
20	24048	226.890606166108	0.94412473601982
20	24134	227.834730902128	0.10681539838243
20	24141	227.94154630051	6.375751200768
20	24889	234.317297501278	0.2969371350666
20	24942	234.614234636345	0.23558095739537
20	24973	234.84981559374	0.089250689462234
20	24981	234.939066283202	3.4823330663764
20	25378	238.421399349578	0.79599790262048
20	25452	239.217397252198	1.9581604633133
20	25625	241.175557715511	0.50489635069854
20	25689	241.68045406621	8.4413992001134
20	26495	250.121853266323	3.0688348862912
20	26794	253.190688152614	0.23619463813316
20	26829	253.426882790747	1.2294287467254
20	26980	254.656311537472	3.2459721420656
20	27354	257.902283679538	1.1458927487244
20	27436	259.048176428262	0.31352198831177
20	27469	259.361698416574	0.28631867459705
20	27515	259.648017091171	0.44169976960879
20	27540	260.08971686078	0.39135263950668
20	27596	260.481069500287	4.166185495167
20	28106	264.647254995454	4.2744685454445
20	28548	268.921723540899	0.71626606945432
20	28618	269.637989610353	3.5640317478514
20	28919	273.202021358204	1.5542696314416
20	29072	274.756290989646	2.622896276477
20	29371	277.379187266123	2.8374303091278
20	29716	280.216617575251	0.4324840585392
20	29760	280.64910163379	1.4760994448411
20	29878	282.125201078631	4.3044405036885
20	30364	286.429641582319	0.046139320454845
20	30370	286.475780902774	5.8629177257127
20	31009	292.338698628487	4.5838932721377
20	31363	296.922591900625	2.1202701898422
20	31575	299.042862090467	1.1172152027861
20	31682	300.160077293253	1.4170347811991
20	31848	301.577112074452	2.7851616525409
20	32118	304.362273726993	1.734281595673
20	32306	306.096555322666	2.4995274275569
20	32579	308.596082750223	5.4204630135394
20	33186	314.016545763762	1.2689117324895
20	33325	315.285457496251	1.1698008416274
20	33513	316.455258337878	4.3481854263386
20	33980	320.803443764217	0.033785567104308
20	33986	320.837229331321	1.5667869040786
20	34202	322.4040162354	2.9348745993214
20	34564	325.338890834721	1.6418347977579
20	34720	326.980725632479	3.2885235079864
20	35069	330.269249140465	0.3582161396489
20	35118	330.627465280114	1.6003057803386
20	35245	332.227771060453	1.140986758042
20	35354	333.368757818495	3.5178507577781
20	35732	336.886608576273	0.77015981954811
20	35830	337.656768395821	2.2471528330543
20	36054	339.903921228875	0.055488166418165
20	36056	339.959409395293	0.51319277752556
20	36114	340.472602172819	1.102877619591
20	36250	341.57547979241	0.81662072913601
20	36355	342.392100521546	1.6332698536078
20	36543	344.025370375154	0.86628192996301
20	36618	344.891652305117	11.91448150277
20	37892	356.806133807887	3.2350264853419
20	38276	360.041160293229	0.063853492536445
20	38277	360.105013785765	0.95030877268943
20	38357	361.055322558454	1.7944964698714
20	38570	362.849819028325	1.1336873841103
20	38715	363.983506412435	3.2158101295125
20	39053	367.199316541948	1.0869842308156
20	39130	368.286300772764	1.534330933436
20	39316	369.8206317062	4.8393675353553
20	39832	374.659999241555	1.439820456024
20	39936	376.099819697579	0.15555989598549
20	39955	376.255379593564	0.18556303596479
20	40002	376.440942629529	0.70734508684332
20	40098	377.148287716372	1.3058079347572
20	40230	378.454095651129	0.17298042542553
20	40246	378.627076076555	2.4860939297348
20	40506	381.11317000629	0.19194900172689
20	40530	381.305119008017	8.7304765405312
20	41414	390.035595548548	1.3353806340589
20	41525	391.370976182607	2.9830052810237
20	41805	394.353981463631	1.4214144613835
20	41939	395.775395925014	3.8130544986845
20	42360	399.588450423699	0.1626005025889
20	42390	399.751050926288	1.0238232661788
21	1948	17.828171716004	0.55308909711404
21	2015	18.381260813118	1.5002086187883
21	2207	19.881469431906	0.67790046733445
21	2277	20.55936989924	0.70942574958375
21	2363	21.268795648824	0.016686175152747
21	2364	21.285481823977	0.30097820005621
21	2404	21.586460024033	11.699003843561
21	3652	33.285463867594	0.58303350961165
21	3711	33.868497377206	0.99481727500273
21	3820	34.863314652209	7.1044544635126
21	4551	41.967769115722	2.3055307686441
21	4848	44.273299884366	0.50233472434664
21	4914	44.775634608713	6.093289092174
21	5559	50.868923700887	1.7813721070284
21	5730	52.650295807915	6.4398837664164
21	6365	59.090179574331	2.4928678629088
21	6627	61.58304743724	0.78971363864826
21	6739	62.372761075888	5.6392044067017
21	7390	68.01196548259	2.9975313540175
21	7667	71.009496836608	3.7022333722144
21	8026	74.711730208822	0.79680986816405
21	8111	75.508540076986	3.1545926815721
21	8423	78.663132758558	0.90267998864797
21	8559	79.565812747206	0.31920115191945
21	8586	79.885013899125	2.5538249608892
21	8880	82.438838860014	0.88587259224047
21	8959	83.324711452254	0.2985298187253
21	8997	83.623241270979	4.8323057093163
21	9507	88.455546980295	3.8046508669913
21	9923	92.260197847286	0.7834208433647
21	10003	93.043618690651	1.2872835836336
21	10126	94.330902274285	1.0918535617678
21	10250	95.422755836053	0.03071327730228
21	10253	95.453469113355	4.0635994537694
21	10695	99.517068567124	0.429108376749
21	10732	99.946176943873	2.0883335981606
21	10993	102.034510542034	1.1979288448238
21	11109	103.232439386858	0.189831258719
21	11126	103.422270645577	1.6767419724239
21	11287	105.099012618001	0.25171846142742
21	11322	105.350731079428	2.9064341156846
21	11618	108.257165195113	0.052705726829951
21	11636	108.309870921943	3.3832613057954
21	11947	111.693132227738	0.38601155855217
21	11985	112.07914378629	0.38877679671291
21	11997	112.467920583003	1.9467947045252
21	12202	114.414715287528	1.1441399835388
21	12291	115.558855271067	1.4704996054653
21	12460	117.029354876532	2.8396291482158
21	12741	119.868984024748	0.92972968090254
21	12855	120.798713705651	0.0043568394680401
21	12857	120.803070545119	0.24567142962461
21	12869	121.048741974744	0.14774203471203
21	12880	121.196484009456	2.860064184544
21	13223	124.056548194	11.688337911536
21	14451	135.744886105536	3.1936565396039
21	14843	138.93854264514	0.1892434462986
21	14860	139.127786091439	0.53177683756136
21	14919	139.659562929	5.6787566572092
21	15529	145.338319586209	2.8443369231345
21	15790	148.182656509344	5.679842624151
21	16382	153.862499133495	0.16929017285204
21	16420	154.031789306347	2.6188967587305
21	16754	156.650686065077	3.3759285907338
21	17045	160.026614655811	1.6851713703908
21	17237	161.711786026202	0.88936763923681
21	17345	162.601153665439	1.6456549903189
21	17503	164.246808655758	0.10962182755104
21	17520	164.356430483309	0.39268907292401
21	17579	164.749119556233	0.82281665412933
21	17657	165.571936210362	0.1292993888999
21	17670	165.701235599262	3.1326028165772
21	17943	168.833838415839	1.6348053732487
21	18116	170.468643789088	0.092639852816402
21	18144	170.561283641904	6.3170786499579
21	18729	176.878362291862	3.2528014486919
21	18985	180.131163740554	0.44757157647381
21	19047	180.578735317028	0.011076242004669
21	19048	180.589811559033	0.34977862936983
21	19082	180.939590188403	1.9707325804927
21	19257	182.910322768896	1.9589827579862
21	19437	184.869305526882	0.38982110175062
21	19472	185.259126628633	0.78435258850967
21	19567	186.043479217143	0.94985179179502
21	19661	186.993331008938	1.4226029498665
21	19833	188.415933958804	9.2284355305939
21	20828	197.644369489398	1.2843010117974
21	20969	198.928670501195	2.4186036126402
21	21211	201.347274113835	0.63367110614848
21	21286	201.980945219983	2.5361239932865
21	21575	204.51706921327	0.058177237855286
21	21586	204.575246451125	0.21464351766218
21	21607	204.789889968787	0.035197618838902
21	21613	204.825087587626	2.7441385322975
21	21968	207.569226119924	4.5673428775265
21	22478	212.136568997451	0.44885807652231
21	22531	212.585427073973	0.19093381081762
21	22545	212.776360884791	5.451806578239
21	23121	218.22816746303	1.4179261692886
21	23290	219.646093632319	0.92543480969669
21	23378	220.571528442016	1.1893907072453
21	23507	221.760919149261	6.8184944529911
21	24210	228.579413602252	0.011384425402896
21	24218	228.590798027655	6.6924410051019
21	25025	235.283239032757	1.9728513395488
21	25261	237.256090372306	0.46521231122408
21	25299	237.72130268353	3.3756185584562
21	25618	241.096921241986	0.085573532126493
21	25626	241.182494774112	3.5173839419957
21	25916	244.699878716108	1.5168419255418
21	26103	246.21672064165	1.0477185051059
21	26198	247.264439146756	0.25951796891654
21	26218	247.523957115673	2.2785761040441
21	26458	249.802533219717	1.4782509726013
21	26633	251.280784192318	2.5321121552449
21	26879	253.812896347563	1.2338730652151
21	27021	255.046769412778	4.3325695748482
21	27471	259.379338987626	2.2551406937407
21	27705	261.634479681367	2.3417863373977
21	28010	263.976266018765	0.32646677633949
21	28059	264.302732795104	2.3540924935997
21	28308	266.656825288704	1.6529229587637
21	28475	268.309748247468	1.6605859562795
21	28638	269.970334203748	0.11286335006274
21	28644	270.083197553811	4.2968998311007
21	29044	274.380097384912	0.50010716727703
21	29079	274.880204552189	3.8131811594839
21	29539	278.693385711673	0.35964051555823
21	29601	279.053026227231	1.116114562533
21	29715	280.169140789764	3.0852450792343
21	30018	283.254385868998	3.9325223125487
21	30449	287.186908181547	1.5338764109164
21	30591	288.720784592463	0.1827903486272
21	30603	288.90357494109	4.7401966298335
21	31108	293.643771570924	2.2799575945079
21	31286	295.923729165432	1.3333087682228
21	31396	297.257037933655	2.7122466221493
21	31670	299.969284555804	0.5481185834165
21	31712	300.51740313922	0.54387573817817
21	31783	301.061278877398	1.1509164721792
21	31938	302.212195349577	0.40257344863382
21	31986	302.614768798211	1.0306105852315
21	32049	303.645379383442	3.8463073483962
21	32469	307.491686731838	1.0276399791806
21	32567	308.519326711019	3.6858235696889
21	32957	312.205150280708	0.32562000092535
21	32999	312.530770281633	0.17891282248763
21	33010	312.709683104121	0.19524345124538
21	33026	312.904926555366	0.35000457065419
21	33082	313.25493112602	2.7164261179862
21	33437	315.971357244006	0.21414510506695
21	33465	316.185502349073	0.015419598749019
21	33469	316.200921947822	2.2954557181607
21	33695	318.496377665983	1.48953665121
21	33862	319.985914317193	2.2917009288164
21	34157	322.277615246009	0.1355890626536
21	34204	322.413204308663	4.6945321399355
21	34740	327.107736448598	2.2947695967773
21	34947	329.402506045375	11.156014295158
21	36125	340.558520340533	0.61824203014848
21	36204	341.176762370681	0.58185423510304
21	36278	341.758616605784	0.50056827146533
21	36344	342.259184877249	0.49484716026881
21	36402	342.754032037518	3.3351429857514
21	36774	346.089175023269	0.38024683264806
21	36808	346.469421855917	0.11849703750483
21	36819	346.587918893422	0.85557309688065
21	36934	347.443491990303	0.17277656263939
21	36950	347.616268552942	0.6458451144294
21	37010	348.262113667371	0.052571963411447
21	37016	348.314685630782	0.12795471071062
21	37034	348.442640341493	2.3611361936129
21	37265	350.803776535106	4.476798390873
21	37738	355.280574925979	2.4949990663203
21	37986	357.775573992299	1.9285908375942
21	38228	359.704164829893	0.62303044550848
21	38289	360.327195275401	2.4376985395701
21	38559	362.764893814971	0.73137117053045
21	38631	363.496264985501	2.9856796855413
21	38969	366.481944671042	3.4741129914715
21	39346	369.956057662513	0.14015453646721
21	39372	370.09621219898	1.576836501872
21	39532	371.673048700852	6.4995380162405
21	40208	378.172586717092	0.13329798939171
21	40213	378.305884706484	4.9565159392499
21	40752	383.262400645734	1.4419946952561
21	40918	384.70439534099	0.61893205225055
21	40986	385.323327393241	2.1336045409694
21	41196	387.45693193421	4.7067122463793
21	41606	392.163644180589	0.62069028052737
21	41675	392.784334461116	1.8642077117604
21	41839	394.648542172876	4.1955264153505
21	42267	398.844068588227	1.5898451810805

