version 2
run Nonmonitoring-exponential-539-20210224-17:49:31-27070
attr configname Nonmonitoring-exponential
attr datetime 20210224-17:49:31
attr experiment Nonmonitoring-exponential
attr inifile aerocom.ini
attr iterationvars $0=50
attr iterationvarsf 50-
attr measurement $0=50
attr network Aerocom
attr processid 27070
attr repetition 39
attr replication #39
attr resultdir results
attr runnumber 539
attr seedset 39
param **.t 2s
param **.k 50ms
param **.X 0.05s
param **.m 1s
param **.tDistribution "\"exponential\""
param **.operationMode 1
param **.s "70 byte"
param **.dimPoolMax 10000
param **.dimPoolMin 8000
param **.nDL 16
param **.nA 1
param **.DLMaxCapacity 0
param **.trasmitting false

vector 0 Aerocom.aircraft[0].packetGenerator arrivalTime:vector ETV
attr "" ""
attr source computeArrivalTime
vector 1 Aerocom.aircraft[0].linkSelector waitingTime:vector ETV
attr "" ""
attr source computeWaitingTime
vector 2 Aerocom.aircraft[0].linkSelector queueLength:vector ETV
attr "" ""
attr source computeQueueLength
vector 3 Aerocom.aircraft[0].dataLink[3] actualCapacity:vector ETV
attr "" ""
attr source computeActualCapacity
vector 4 Aerocom.aircraft[0].linkSelector serviceTime:vector ETV
attr "" ""
attr source computeServiceTime
vector 5 Aerocom.aircraft[0].linkSelector responseTime:vector ETV
attr "" ""
attr source computeResponseTime
vector 6 Aerocom.aircraft[0].dataLink[7] tDistribution:vector ETV
attr "" ""
attr source computeTDistribution
vector 7 Aerocom.aircraft[0].dataLink[1] tDistribution:vector ETV
attr "" ""
attr source computeTDistribution
vector 8 Aerocom.aircraft[0].dataLink[0] tDistribution:vector ETV
attr "" ""
attr source computeTDistribution
vector 9 Aerocom.aircraft[0].dataLink[11] tDistribution:vector ETV
attr "" ""
attr source computeTDistribution
vector 10 Aerocom.aircraft[0].dataLink[2] tDistribution:vector ETV
attr "" ""
attr source computeTDistribution
vector 11 Aerocom.aircraft[0].dataLink[6] tDistribution:vector ETV
attr "" ""
attr source computeTDistribution
vector 12 Aerocom.aircraft[0].dataLink[15] tDistribution:vector ETV
attr "" ""
attr source computeTDistribution
vector 13 Aerocom.aircraft[0].dataLink[10] tDistribution:vector ETV
attr "" ""
attr source computeTDistribution
vector 14 Aerocom.aircraft[0].dataLink[5] tDistribution:vector ETV
attr "" ""
attr source computeTDistribution
vector 15 Aerocom.aircraft[0].dataLink[8] tDistribution:vector ETV
attr "" ""
attr source computeTDistribution
vector 16 Aerocom.aircraft[0].dataLink[3] tDistribution:vector ETV
attr "" ""
attr source computeTDistribution
vector 17 Aerocom.aircraft[0].dataLink[14] tDistribution:vector ETV
attr "" ""
attr source computeTDistribution
vector 18 Aerocom.aircraft[0].dataLink[4] tDistribution:vector ETV
attr "" ""
attr source computeTDistribution
vector 19 Aerocom.aircraft[0].dataLink[13] tDistribution:vector ETV
attr "" ""
attr source computeTDistribution
vector 20 Aerocom.aircraft[0].dataLink[9] tDistribution:vector ETV
attr "" ""
attr source computeTDistribution
vector 21 Aerocom.aircraft[0].dataLink[12] tDistribution:vector ETV
attr "" ""
attr source computeTDistribution
0	961	10.015104973545	0.194017784845
0	967	10.20912275839	0.037241838855
0	972	10.246364597245	0.040226537278
0	977	10.286591134523	0.043167275556
0	983	10.329758410079	0.078084722812
0	988	10.407843132891	0.066040214917
0	994	10.473883347808	0.194195786896
0	1001	10.668079134704	0.032334129217
0	1006	10.700413263921	0.008105433285
0	1011	10.708518697206	0.040796832717
0	1017	10.749315529923	0.064023315879
0	1023	10.813338845802	0.098771124887
0	1031	10.912109970689	0.052563289923
0	1037	10.964673260612	0.193539759468
0	1043	11.15821302008	0.058847998679
0	1048	11.217061018759	0.034349376287
0	1054	11.251410395046	0.037924052151
0	1059	11.289334447197	0.048495058901
0	1064	11.337829506098	0.187502955462
0	1072	11.52533246156	0.047302885169
0	1079	11.572635346729	0.000266272628
0	1081	11.572901619357	0.120153886384
0	1091	11.693055505741	0.007636855499
0	1096	11.70069236124	0.008054575851
0	1101	11.708746937091	0.010807118475
0	1106	11.719554055566	0.067722698682
0	1111	11.787276754248	0.052863644752
0	1117	11.840140399	0.013990555589
0	1123	11.854130954589	0.094859626908
0	1129	11.948990581497	0.017561576494
0	1134	11.966552157991	0.033742882629
0	1139	12.00029504062	0.019357622425
0	1145	12.019652663045	0.016758087849
0	1151	12.036410750894	0.023014555313
0	1156	12.059425306207	0.017320218937
0	1163	12.076745525144	0.081745130798
0	1169	12.158490655942	0.002712852153
0	1171	12.161203508095	0.115100748427
0	1182	12.276304256522	0.003470941598
0	1184	12.27977519812	0.027466560983
0	1192	12.307241759103	0.007635332876
0	1197	12.314877091979	0.032914956385
0	1203	12.347792048364	0.073313419003
0	1208	12.421105467367	0.009108425585
0	1213	12.430213892952	0.000359329195
0	1215	12.430573222147	0.052555970747
0	1223	12.483129192894	0.057296996877
0	1229	12.540426189771	0.031521714396
0	1234	12.571947904167	0.00886231257
0	1240	12.580810216737	0.011846363815
0	1245	12.592656580552	0.001455568996
0	1247	12.594112149548	0.245754852289
0	1256	12.839867001837	0.047999420991
0	1262	12.887866422828	0.057236578196
0	1267	12.945103001024	0.210053078769
0	1274	13.155156079793	0.097886254515
0	1279	13.253042334308	0.120989578216
0	1284	13.374031912524	0.004231002418
0	1286	13.378262914942	0.115148195704
0	1296	13.493411110646	0.031561293403
0	1301	13.524972404049	0.008621634375
0	1306	13.533594038424	0.030508531051
0	1311	13.564102569475	0.074004037968
0	1316	13.638106607443	0.087861317674
0	1321	13.725967925117	0.048613004883
0	1326	13.77458093	0.077004418856
0	1331	13.851585348856	0.011129033932
0	1336	13.862714382788	0.002645727731
0	1338	13.865360110519	0.079221412232
0	1348	13.944581522751	0.052236193593
0	1353	13.996817716344	0.090113394382
0	1358	14.086931110726	0.008984600371
0	1363	14.095915711097	0.006354013994
0	1365	14.102269725091	0.07147134293
0	1373	14.173741068021	0.074807396554
0	1380	14.248548464575	0.074345357077
0	1387	14.322893821652	0.242916455569
0	1396	14.565810277221	0.006127118538
0	1398	14.571937395759	0.084672573543
0	1407	14.656609969302	0.041948521481
0	1413	14.698558490783	0.039590339812
0	1418	14.738148830595	0.046752157109
0	1428	14.784900987704	0.002573507848
0	1430	14.787474495552	0.002667439657
0	1432	14.790141935209	0.050071229597
0	1443	14.840213164806	0.025669175171
0	1448	14.865882339977	0.001294698505
0	1450	14.867177038482	0.052666474463
0	1458	14.919843512945	0.002540984395
0	1460	14.92238449734	0.09656668702
0	1469	15.01895118436	0.087896036289
0	1475	15.106847220649	0.113919671608
0	1481	15.220766892257	0.038548677432
0	1486	15.259315569689	0.14617054403
0	1493	15.405486113719	0.004756618328
0	1495	15.410242732047	0.055273747303
0	1503	15.46551647935	0.006805370511
0	1505	15.472321849861	0.098708555734
0	1513	15.571030405595	0.11329951145
0	1519	15.684329917045	0.060568299613
0	1524	15.744898216658	0.035699566242
0	1529	15.7805977829	0.035247542237
0	1534	15.815845325137	0.104827732689
0	1540	15.920673057826	0.05494337022
0	1545	15.975616428046	0.058830109425
0	1550	16.034446537471	0.000418307931
0	1552	16.034864845402	0.005637654609
0	1554	16.040502500011	0.034344454054
0	1566	16.074846954065	0.033573424969
0	1571	16.108420379034	0.084421971851
0	1577	16.192842350885	0.103069502035
0	1584	16.29591185292	0.020190044254
0	1589	16.316101897174	0.037927748877
0	1595	16.354029646051	0.005015565775
0	1597	16.359045211826	0.004211767072
0	1602	16.363256978898	0.051491942684
0	1611	16.414748921582	0.072873532966
0	1617	16.487622454548	0.015652033552
0	1622	16.5032744881	0.156771654603
0	1628	16.660046142703	0.207030144046
0	1634	16.867076286749	0.058547065752
0	1641	16.925623352501	0.005595895809
0	1643	16.93121924831	0.007271792293
0	1648	16.938491040603	0.065519438772
0	1656	17.004010479375	0.051417960794
0	1662	17.055428440169	0.072504265561
0	1669	17.12793270573	0.052009788036
0	1674	17.179942493766	0.009938750112
0	1680	17.189881243878	0.073245734583
0	1685	17.263126978461	0.008979109018
0	1690	17.272106087479	0.07146139014
0	1695	17.343567477619	0.009891906156
0	1700	17.353459383775	0.002152437118
0	1702	17.355611820893	0.199124376
0	1713	17.554736196893	0.07221775726
0	1719	17.626953954153	0.029037955834
0	1724	17.655991909987	0.035838902448
0	1731	17.691830812435	0.030425943111
0	1736	17.722256755546	0.000789944972
0	1738	17.723046700518	0.011154531163
0	1743	17.734201231681	0.039143007928
0	1751	17.773344239609	0.027509465418
0	1756	17.800853705027	0.00768688008
0	1758	17.808540585107	0.007588273821
0	1763	17.816128858928	0.027286329213
0	1773	17.843415188141	0.014841087522
0	1778	17.858256275663	0.005025953433
0	1780	17.863282229096	0.118196704913
0	1789	17.981478934009	0.104651578436
0	1796	18.086130512445	0.007271768677
0	1798	18.093402281122	0.028439741321
0	1806	18.121842022443	0.065271696279
0	1812	18.187113718722	0.014402139795
0	1817	18.201515858517	0.041086606915
0	1822	18.242602465432	0.001674661948
0	1824	18.24427712738	0.035918788228
0	1832	18.280195915608	0.005883262501
0	1834	18.286079178109	0.037264860544
0	1842	18.323344038653	0.00551956336
0	1844	18.328863602013	0.010324253888
0	1849	18.339187855901	0.008626229286
0	1857	18.347814085187	0.08721022937
0	1862	18.435024314557	0.013133388956
0	1867	18.448157703513	0.133318886533
0	1872	18.581476590046	0.012481080958
0	1877	18.593957671004	0.075011407709
0	1882	18.668969078713	0.05642573514
0	1888	18.725394813853	0.005503263208
0	1890	18.730898077061	0.092296864112
0	1899	18.823194941173	0.046600106638
0	1904	18.869795047811	0.010656990864
0	1909	18.880452038675	0.046623418104
0	1915	18.927075456779	0.038681986921
0	1920	18.9657574437	0.123975953639
0	1926	19.089733397339	0.085881930082
0	1931	19.175615327421	0.001498006427
0	1933	19.177113333848	0.046169700322
0	1942	19.22328303417	0.010609042821
0	1947	19.233892076991	0.008909028874
0	1952	19.242801105865	0.151337836842
0	1958	19.394138942707	0.031563183477
0	1963	19.425702126184	0.036253860584
0	1968	19.461955986768	0.013267635728
0	1973	19.475223622496	0.028844397326
0	1978	19.504068019822	0.002236250703
0	1980	19.506304270525	0.003930134319
0	1982	19.510234404844	0.049177241698
0	1993	19.559411646542	0.002978767743
0	1995	19.562390414285	0.081888131043
0	2005	19.644278545328	0.02455115753
0	2010	19.668829702858	0.045102399373
0	2017	19.713932102231	0.07408076432
0	2023	19.788012866551	0.093913666829
0	2028	19.88192653338	0.000548073935
0	2030	19.882474607315	0.057828168595
0	2038	19.94030277591	0.005375552245
0	2040	19.945678328155	0.051389775513
0	2048	19.997068103668	0.02761863474
0	2055	20.024686738408	0.010484797395
0	2060	20.035171535803	0.068693606626
0	2065	20.103865142429	0.070211032881
0	2070	20.17407617531	0.051048118463
0	2075	20.225124293773	0.017938272358
0	2080	20.243062566131	0.019820341485
0	2085	20.262882907616	0.008020930685
0	2087	20.270903838301	0.030882020999
0	2095	20.3017858593	0.074368325036
0	2100	20.376154184336	0.026403478382
0	2105	20.402557662718	0.093762502826
0	2110	20.496320165544	0.013175404372
0	2115	20.509495569916	0.00021769766
0	2117	20.509713267576	0.016088062358
0	2125	20.525801329934	0.066429134971
0	2130	20.592230464905	0.112400439817
0	2135	20.704630904722	0.000493818056
0	2137	20.705124722778	0.040594081528
0	2145	20.745718804306	0.009398074857
0	2150	20.755116879163	0.016025009333
0	2155	20.771141888496	0.072795934288
0	2160	20.843937822784	0.095275887096
0	2166	20.93921370988	0.021536028522
0	2171	20.960749738402	0.012436920559
0	2176	20.973186658961	0.001565461145
0	2178	20.974752120106	0.083723575778
0	2186	21.058475695884	0.10880517214
0	2191	21.167280868024	0.104920301191
0	2196	21.272201169215	0.002930909635
0	2198	21.27513207885	0.031621433065
0	2206	21.306753511915	0.007048899966
0	2208	21.313802411881	0.043326193267
0	2216	21.357128605148	0.015912240864
0	2221	21.373040846012	0.005914310455
0	2223	21.378955156467	0.05494233578
0	2231	21.433897492247	0.011339603961
0	2236	21.445237096208	0.000653563964
0	2238	21.445890660172	0.000186719861
0	2240	21.446077380033	0.022512767482
0	2249	21.468590147515	0.055676713892
0	2257	21.524266861407	0.081381376157
0	2262	21.605648237564	0.080615673739
0	2267	21.686263911303	0.034508835168
0	2272	21.720772746471	0.06975172865
0	2277	21.790524475121	0.170273895136
0	2283	21.960798370257	0.056819549937
0	2288	22.017617920194	0.088733548615
0	2293	22.106351468809	0.061528667386
0	2298	22.167880136195	0.050109800934
0	2303	22.217989937129	0.012261340807
0	2308	22.230251277936	0.028051157161
0	2314	22.258302435097	0.063966940206
0	2319	22.322269375303	0.027497187689
0	2324	22.349766562992	0.018960911054
0	2330	22.368727474046	0.01670030633
0	2335	22.385427780376	0.046557957986
0	2340	22.431985738362	0.049121567502
0	2345	22.481107305864	0.086177442587
0	2350	22.567284748451	0.03941289169
0	2356	22.606697640141	0.064035439037
0	2361	22.670733079178	0.005424878598
0	2363	22.676157957776	0.038741189458
0	2371	22.714899147234	0.104875575084
0	2377	22.819774722318	0.045485728731
0	2384	22.865260451049	0.024866402998
0	2389	22.890126854047	0.022156215817
0	2395	22.912283069864	0.028479695252
0	2401	22.940762765116	0.059145687429
0	2406	22.999908452545	0.004608692261
0	2408	23.004517144806	0.019319591549
0	2416	23.023836736355	0.104839616362
0	2422	23.128676352717	0.039793125799
0	2427	23.168469478516	0.007400136183
0	2429	23.175869614699	0.007568153306
0	2434	23.183437768005	0.067619568546
0	2443	23.251057336551	0.041582925877
0	2448	23.292640262428	0.005660243551
0	2450	23.298300505979	0.010843016533
0	2458	23.309143522512	0.164939842771
0	2464	23.474083365283	0.023119551549
0	2469	23.497202916832	0.011001769933
0	2474	23.508204686765	0.008116092883
0	2479	23.516320779648	0.037104477596
0	2485	23.553425257244	0.014244793639
0	2491	23.567670050883	0.116198448995
0	2497	23.683868499878	0.087870327778
0	2503	23.771738827656	0.057658847242
0	2508	23.829397674898	0.040391944928
0	2513	23.869789619826	0.023381868441
0	2518	23.893171488267	0.000782828442
0	2520	23.893954316709	0.032966537676
0	2530	23.926920854385	0.003671726405
0	2532	23.93059258079	0.097295531621
0	2541	24.027888112411	0.000943254042
0	2543	24.028831366453	0.009816250761
0	2548	24.038647617214	0.014279329386
0	2556	24.0529269466	0.020960190263
0	2561	24.073887136863	0.022037247169
0	2566	24.095924384032	0.000906168769
0	2568	24.096830552801	0.05601338172
0	2576	24.152843934521	0.039893476299
0	2581	24.19273741082	0.059627345794
0	2586	24.252364756614	0.020302209497
0	2592	24.272666966111	0.003647431496
0	2594	24.276314397607	0.077625427647
0	2602	24.353939825254	0.051668645446
0	2607	24.4056084707	0.067691861411
0	2612	24.473300332111	0.017674916837
0	2617	24.490975248948	0.116492619848
0	2626	24.607467868796	0.00354440214
0	2628	24.611012270936	0.121858697385
0	2636	24.732870968321	0.011051242941
0	2641	24.743922211262	0.020015610039
0	2646	24.763937821301	0.026801004347
0	2651	24.790738825648	0.018193666696
0	2656	24.808932492344	0.178883740969
0	2663	24.987816233313	0.053807522608
0	2668	25.041623755921	0.05563751355
0	2673	25.097261269471	0.003379709662
0	2675	25.100640979133	0.087243360146
0	2683	25.187884339279	0.024017678488
0	2689	25.211902017767	0.051186883492
0	2695	25.263088901259	0.003069933494
0	2697	25.266158834753	0.060300997996
0	2705	25.326459832749	0.05016661141
0	2710	25.376626444159	0.037048705802
0	2715	25.413675149961	0.032326707826
0	2720	25.446001857787	0.013683379796
0	2725	25.459685237583	0.018613854557
0	2730	25.47829909214	0.049362833461
0	2735	25.527661925601	0.056120567328
0	2741	25.583782492929	0.005801922374
0	2743	25.589584415303	0.041315029949
0	2751	25.630899445252	0.052907189561
0	2756	25.683806634813	0.046746548495
0	2761	25.730553183308	0.002001564942
0	2763	25.73255474825	0.010833791515
0	2769	25.743388539765	0.018531577065
0	2778	25.76192011683	0.010795621419
0	2783	25.772715738249	0.002057884214
0	2785	25.774773622463	0.283381450464
0	2794	26.058155072927	0.0550466278
0	2800	26.113201700727	0.007313613531
0	2802	26.120515314258	0.140534677975
0	2812	26.261049992233	0.020581923891
0	2817	26.281631916124	0.044457213566
0	2822	26.32608912969	0.014940745152
0	2827	26.341029874842	0.039729434172
0	2833	26.380759309014	0.06896595248
0	2838	26.449725261494	0.176164607404
0	2847	26.625889868898	0.047007697099
0	2852	26.672897565997	0.013132813754
0	2857	26.686030379751	0.005135544167
0	2859	26.691165923918	0.004856561637
0	2864	26.696022485555	0.007617475666
0	2869	26.703639961221	0.100762350344
0	2878	26.804402311565	0.02420857483
0	2883	26.828610886395	0.019438863382
0	2888	26.848049749777	0.01844446749
0	2893	26.866494217267	0.035078875517
0	2898	26.901573092784	0.030881756352
0	2903	26.932454849136	0.134554454531
0	2908	27.067009303667	0.167483860931
0	2917	27.234493164598	0.018776052505
0	2922	27.253269217103	0.02887572825
0	2927	27.282144945353	0.040063101671
0	2932	27.322208047024	0.048448478611
0	2938	27.370656525635	0.00041652396
0	2940	27.371073049595	0.07438353197
0	2949	27.445456581565	0.07418157153
0	2957	27.519638153095	0.079977216685
0	2962	27.59961536978	0.032349690332
0	2967	27.631965060112	0.062469084384
0	2974	27.694434144496	0.06764090985
0	2979	27.762075054346	0.024448574405
0	2984	27.786523628751	0.020507257011
0	2990	27.807030885762	0.018913064083
0	2995	27.825943949845	0.027942900409
0	3000	27.853886850254	0.051068374318
0	3005	27.904955224572	0.139584655493
0	3011	28.044539880065	0.050447688688
0	3016	28.094987568753	0.085655383696
0	3021	28.180642952449	0.059735566025
0	3027	28.240378518474	0.030415399039
0	3032	28.270793917513	0.032378356636
0	3037	28.303172274149	0.010989863016
0	3043	28.314162137165	0.038058766981
0	3048	28.352220904146	0.002493830428
0	3050	28.354714734574	0.014371450847
0	3058	28.369086185421	0.049936774165
0	3063	28.419022959586	0.122906218835
0	3069	28.541929178421	0.042196550274
0	3074	28.584125728695	0.033439247865
0	3079	28.61756497656	0.04225848474
0	3085	28.6598234613	0.034105104755
0	3090	28.693928566055	0.030473770355
0	3096	28.72440233641	0.042263981345
0	3101	28.766666317755	0.024932448803
0	3106	28.791598766558	0.029290945309
0	3111	28.820889711867	0.054869230636
0	3116	28.875758942503	0.084400686621
0	3122	28.960159629124	0.022647007116
0	3128	28.98280663624	0.043162078981
0	3133	29.025968715221	0.020156674828
0	3138	29.046125390049	0.058648263284
0	3143	29.104773653333	0.02351506815
0	3149	29.128288721483	0.015261729719
0	3154	29.143550451202	0.008549438611
0	3159	29.152099889813	0.025537124492
0	3165	29.177637014305	0.069745836276
0	3170	29.247382850581	0.004049134149
0	3172	29.25143198473	0.058474258565
0	3181	29.309906243295	0.009102341471
0	3186	29.319008584766	0.030692604368
0	3192	29.349701189134	0.051488894714
0	3197	29.401190083848	0.011294142526
0	3203	29.412484226374	0.071033181842
0	3209	29.483517408216	0.113998096783
0	3216	29.597515504999	0.110599641448
0	3221	29.708115146447	0.048306190504
0	3228	29.756421336951	0.064065645509
0	3233	29.82048698246	0.007105264036
0	3235	29.827592246496	0.02467709221
0	3243	29.852269338706	0.008373910979
0	3248	29.860643249685	0.232467073736
0	3257	30.093110323421	0.046423253381
0	3262	30.139533576802	0.038494410323
0	3267	30.178027987125	0.002333963855
0	3269	30.18036195098	0.054581145549
0	3277	30.234943096529	0.082491848965
0	3283	30.317434945494	0.038955209641
0	3289	30.356390155135	0.009599441267
0	3294	30.365989596402	0.018868150203
0	3299	30.384857746605	0.280100407129
0	3306	30.664958153734	0.092273588498
0	3311	30.757231742232	0.026700727821
0	3316	30.783932470053	0.057968466488
0	3322	30.841900936541	0.048219483541
0	3327	30.890120420082	0.003475862791
0	3329	30.893596282873	0.030502108585
0	3337	30.924098391458	0.110926756164
0	3344	31.035025147622	0.083419275756
0	3349	31.118444423378	0.035314503177
0	3354	31.153758926555	0.009121180127
0	3359	31.162880106682	0.02399076301
0	3364	31.186870869692	0.01816945008
0	3369	31.205040319772	0.045169490923
0	3375	31.250209810695	0.02333937485
0	3381	31.273549185545	0.059450284834
0	3386	31.332999470379	0.001978314302
0	3388	31.334977784681	0.076584715409
0	3396	31.41156250009	0.006019241463
0	3398	31.417581741553	0.082553255166
0	3407	31.500134996719	0.037029567137
0	3412	31.537164563856	0.001669646884
0	3414	31.53883421074	0.03366600769
0	3422	31.57250021843	0.213375256184
0	3427	31.785875474614	0.067572801533
0	3432	31.853448276147	0.234129427433
0	3440	32.08757770358	0.001152723013
0	3442	32.088730426593	0.011857481852
0	3448	32.100587908445	0.023670445299
0	3456	32.124258353744	0.044048239171
0	3461	32.168306592915	0.057152069586
0	3466	32.225458662501	0.000172493398
0	3468	32.225631155899	0.062749006782
0	3476	32.288380162681	0.014862910132
0	3481	32.303243072813	0.061973603669
0	3487	32.365216676482	0.00407177
0	3489	32.369288446482	0.040790654457
0	3497	32.410079100939	0.042167110022
0	3504	32.452246210961	0.009415823685
0	3509	32.461662034646	0.030890875855
0	3514	32.492552910501	0.043326359578
0	3519	32.535879270079	0.031102666517
0	3524	32.566981936596	0.043352109032
0	3529	32.610334045628	0.005554555982
0	3531	32.61588860161	0.034437984943
0	3540	32.650326586553	0.028011328718
0	3545	32.678337915271	0.071463244896
0	3550	32.749801160167	0.001211407844
0	3552	32.751012568011	0.088913385176
0	3560	32.839925953187	0.004456365815
0	3562	32.844382319002	0.035615068804
0	3571	32.879997387806	0.028355716193
0	3576	32.908353103999	0.044749928262
0	3581	32.953103032261	0.067601283434
0	3586	33.020704315695	0.032559356696
0	3592	33.053263672391	0.035915779412
0	3597	33.089179451803	0.028683469546
0	3602	33.117862921349	0.024930092991
0	3607	33.14279301434	0.0166861646
0	3612	33.15947917894	0.013944834429
0	3617	33.173424013369	0.019590365138
0	3622	33.193014378507	0.115141091717
0	3628	33.308155470224	0.027820352258
0	3633	33.335975822482	0.027962360779
0	3638	33.363938183261	0.108699192619
0	3644	33.47263737588	0.022309464062
0	3649	33.494946839942	0.001557250346
0	3651	33.496504090288	0.058397509879
0	3661	33.554901600167	0.082989402963
0	3666	33.63789100313	0.122291895522
0	3671	33.760182898652	0.041154645628
0	3676	33.80133754428	0.059810723083
0	3681	33.861148267363	0.000802877733
0	3683	33.861951145096	0.006994871001
0	3685	33.868946016097	0.003220726652
0	3690	33.872166742749	0.052435368065
0	3702	33.924602110814	0.000816510492
0	3704	33.925418621306	0.022863249301
0	3712	33.948281870607	0.054561310367
0	3718	34.002843180974	0.011313450795
0	3723	34.014156631769	0.081145692369
0	3729	34.095302324138	0.011303655277
0	3734	34.106605979415	0.091061389743
0	3739	34.197667369158	0.051594496249
0	3744	34.249261865407	0.01481445952
0	3749	34.264076324927	0.011002053614
0	3754	34.275078378541	0.000681860805
0	3756	34.275760239346	0.03170473648
0	3764	34.307464975826	0.020826499005
0	3769	34.328291474831	0.021269159528
0	3774	34.349560634359	0.075273625099
0	3780	34.424834259458	0.071147459167
0	3787	34.495981718625	0.109585655552
0	3793	34.605567374177	0.057770201678
0	3798	34.663337575855	0.007719179875
0	3800	34.67105675573	0.036510979603
0	3808	34.707567735333	0.014041004655
0	3813	34.721608739988	0.009816660127
0	3818	34.731425400115	0.231412756335
0	3824	34.96283815645	0.003232154552
0	3826	34.966070311002	0.220365951653
0	3835	35.186436262655	0.131322077703
0	3840	35.317758340358	0.156141387984
0	3848	35.473899728342	0.015730267304
0	3853	35.489629995646	0.061192596273
0	3859	35.550822591919	0.009879630292
0	3864	35.560702222211	0.0653285949
0	3869	35.626030817111	0.040246879635
0	3874	35.666277696746	0.050529263782
0	3879	35.716806960528	0.014974920932
0	3884	35.73178188146	0.074528690524
0	3890	35.806310571984	0.000169806899
0	3892	35.806480378883	0.02820172368
0	3900	35.834682102563	0.024156910151
0	3906	35.858839012714	0.032091344059
0	3911	35.890930356773	0.022055416476
0	3916	35.912985773249	0.013344444568
0	3921	35.926330217817	0.008919645122
0	3926	35.935249862939	0.042089445144
0	3932	35.977339308083	0.009895994978
0	3937	35.987235303061	0.013845321069
0	3942	36.00108062413	0.130985201539
0	3948	36.132065825669	0.065579092597
0	3953	36.197644918266	0.027827245212
0	3958	36.225472163478	0.05164541122
0	3963	36.277117574698	0.057122739976
0	3970	36.334240314674	0.007871124411
0	3975	36.342111439085	0.058041508161
0	3980	36.400152947246	0.052139102626
0	3985	36.452292049872	0.03301816072
0	3990	36.485310210592	0.075258405036
0	3997	36.560568615628	0.045843812132
0	4002	36.60641242776	0.005966480117
0	4004	36.612378907877	0.088204886657
0	4012	36.700583794534	0.019288091905
0	4017	36.719871886439	0.063761382944
0	4024	36.783633269383	0.046287953622
0	4029	36.829921223005	0.102340253364
0	4034	36.932261476369	0.011820315244
0	4039	36.944081791613	0.053367726367
0	4044	36.99744951798	0.067149533876
0	4049	37.064599051856	0.033242421954
0	4054	37.09784147381	0.027586861316
0	4059	37.125428335126	0.071423751459
0	4066	37.196852086585	0.021159485344
0	4071	37.218011571929	0.119670867352
0	4076	37.337682439281	0.068426368476
0	4083	37.406108807757	0.029663225351
0	4088	37.435772033108	0.020872788671
0	4094	37.456644821779	0.065022340977
0	4101	37.521667162756	0.162241746894
0	4108	37.68390890965	0.007304582052
0	4110	37.691213491702	0.053651614895
0	4118	37.744865106597	0.066045107626
0	4123	37.810910214223	0.004969961536
0	4125	37.815880175759	0.033219123043
0	4133	37.849099298802	0.038473263484
0	4138	37.887572562286	0.071070326911
0	4144	37.958642889197	0.008540846314
0	4151	37.967183735511	0.025625014814
0	4156	37.992808750325	0.004468118826
0	4158	37.997276869151	0.090993406725
0	4167	38.088270275876	0.046190661649
0	4172	38.134460937525	0.057057210366
0	4177	38.191518147891	0.02765493828
0	4182	38.219173086171	0.092631974474
0	4187	38.311805060645	0.054462365867
0	4192	38.366267426512	0.015575719473
0	4197	38.381843145985	0.058547833989
0	4203	38.440390979974	0.010904833899
0	4208	38.451295813873	0.057117355315
0	4213	38.508413169188	0.105593221519
0	4218	38.614006390707	0.005642788583
0	4220	38.61964917929	0.08782052219
0	4228	38.70746970148	0.041524975147
0	4234	38.748994676627	0.097995337868
0	4240	38.846990014495	0.001310350325
0	4242	38.84830036482	0.005461669352
0	4244	38.853762034172	0.047543388719
0	4255	38.901305422891	0.028323078261
0	4260	38.929628501152	0.058841316735
0	4266	38.988469817887	0.040635606185
0	4272	39.029105424072	0.001742105436
0	4274	39.030847529508	0.034284218989
0	4283	39.065131748497	0.015054560589
0	4288	39.080186309086	0.009560666977
0	4293	39.089746976063	0.027587080282
0	4298	39.117334056345	0.042996651289
0	4304	39.160330707634	0.030064535639
0	4309	39.190395243273	0.051085929369
0	4314	39.241481172642	0.015440393182
0	4319	39.256921565824	0.045614607883
0	4324	39.302536173707	0.019638724431
0	4329	39.322174898138	0.02889547692
0	4334	39.351070375058	0.019484912516
0	4340	39.370555287574	0.019564471354
0	4345	39.390119758928	0.023002686489
0	4351	39.413122445417	0.146893572284
0	4357	39.560016017701	0.052638942706
0	4362	39.612654960407	0.122314320578
0	4367	39.734969280985	0.050901992819
0	4372	39.785871273804	0.157588135261
0	4378	39.943459409065	0.276411828022
0	4385	40.219871237087	0.123062024739
0	4391	40.342933261826	0.087438484913
0	4397	40.430371746739	0.012307420563
0	4402	40.442679167302	0.005988323805
0	4404	40.448667491107	0.036069084184
0	4412	40.484736575291	0.012813757516
0	4417	40.497550332807	0.110110583473
0	4423	40.60766091628	0.108287372835
0	4428	40.715948289115	0.087039524271
0	4434	40.802987813386	0.105785851197
0	4439	40.908773664583	0.007317688882
0	4441	40.916091353465	0.120201571609
0	4449	41.036292925074	0.043691728023
0	4454	41.079984653097	0.04210890612
0	4459	41.122093559217	0.169091310729
0	4467	41.291184869946	0.001869190256
0	4469	41.293054060202	0.028711172066
0	4477	41.321765232268	0.062144710428
0	4482	41.383909942696	0.095415750525
0	4487	41.479325693221	0.022239913017
0	4494	41.501565606238	0.000418169302
0	4496	41.50198377554	0.037616747326
0	4505	41.539600522866	0.014334574568
0	4511	41.553935097434	0.109321607086
0	4517	41.66325670452	0.006936132175
0	4519	41.670192836695	0.064128707277
0	4528	41.734321543972	0.011020998955
0	4533	41.745342542927	0.047812727183
0	4539	41.79315527011	0.057658936278
0	4544	41.850814206388	0.074707282039
0	4549	41.925521488427	0.005157123425
0	4551	41.930678611852	0.145222688089
0	4561	42.075901299941	0.034543010246
0	4566	42.110444310187	0.051684964125
0	4571	42.162129274312	0.00955602082
0	4576	42.171685295132	0.107955068459
0	4581	42.279640363591	0.065020759538
0	4587	42.344661123129	0.117211323206
0	4592	42.461872446335	0.019778420797
0	4597	42.481650867132	0.024371385881
0	4603	42.506022253013	0.01480728133
0	4608	42.520829534343	0.017954800262
0	4613	42.538784334605	0.06787216674
0	4620	42.606656501345	0.019675026001
0	4625	42.626331527346	0.004852088677
0	4627	42.631183616023	0.017615094219
0	4635	42.648798710242	0.005648276365
0	4637	42.654446986607	0.075484942352
0	4646	42.729931928959	0.111207673682
0	4651	42.841139602641	0.035275321134
0	4656	42.876414923775	0.068701153164
0	4661	42.945116076939	0.034660631733
0	4667	42.979776708672	0.086845010647
0	4672	43.066621719319	0.002708089557
0	4674	43.069329808876	0.150140772654
0	4683	43.21947058153	0.066750220316
0	4688	43.286220801846	0.008826621552
0	4693	43.295047423398	0.022214115846
0	4698	43.317261539244	0.065494019651
0	4705	43.382755558895	0.003563721732
0	4707	43.386319280627	0.003112762732
0	4709	43.389432043359	0.051344684687
0	4720	43.440776728046	0.059146695181
0	4725	43.499923423227	0.039532792491
0	4730	43.539456215718	0.040397204831
0	4735	43.579853420549	0.021174998658
0	4740	43.601028419207	0.000501335979
0	4742	43.601529755186	0.033461464298
0	4750	43.634991219484	0.033222405277
0	4755	43.668213624761	0.004924224772
0	4757	43.673137849533	0.026691595209
0	4766	43.699829444742	0.08036395843
0	4771	43.780193403172	0.055782811186
0	4776	43.835976214358	0.047886211924
0	4781	43.883862426282	0.013331051939
0	4786	43.897193478221	0.116170842141
0	4794	44.013364320362	0.012353524642
0	4799	44.025717845004	0.0462425259
0	4804	44.071960370904	0.040041660675
0	4811	44.112002031579	0.001674247119
0	4813	44.113676278698	0.025141720512
0	4821	44.13881799921	0.060910793179
0	4826	44.199728792389	0.016682488703
0	4831	44.216411281092	0.112741403875
0	4838	44.329152684967	0.0337822641
0	4843	44.362934949067	0.109101324492
0	4848	44.472036273559	0.02284184724
0	4853	44.494878120799	0.001507964575
0	4855	44.496386085374	0.093296995024
0	4863	44.589683080398	0.126240705065
0	4870	44.715923785463	0.015559498337
0	4875	44.7314832838	0.035590322251
0	4881	44.767073606051	0.042182985007
0	4886	44.809256591058	0.014008581759
0	4891	44.823265172817	0.055457162289
0	4896	44.878722335106	0.076678730624
0	4901	44.95540106573	0.071163341222
0	4906	45.026564406952	0.035543641248
0	4912	45.0621080482	0.028589377534
0	4917	45.090697425734	0.011554624316
0	4922	45.10225205005	0.031992151989
0	4928	45.134244202039	0.040822511416
0	4933	45.175066713455	0.037160108183
0	4938	45.212226821638	0.009978800209
0	4943	45.222205621847	0.127516197828
0	4952	45.349721819675	0.048561165181
0	4958	45.398282984856	0.040713772096
0	4963	45.438996756952	0.049531401794
0	4968	45.488528158746	0.065395291722
0	4974	45.553923450468	0.012535309567
0	4979	45.566458760035	0.039060978517
0	4984	45.605519738552	0.001269572884
0	4986	45.606789311436	0.008057525195
0	4992	45.614846836631	0.028922223118
0	5000	45.643769059749	0.002159894958
0	5002	45.645928954707	0.00358626948
0	5004	45.649515224187	0.019662465633
0	5017	45.66917768982	0.052427089679
0	5022	45.721604779499	0.056253462356
0	5028	45.777858241855	0.045971460217
0	5033	45.823829702072	0.047146409236
0	5038	45.870976111308	0.004689662532
0	5040	45.87566577384	0.083318319166
0	5048	45.958984093006	0.009275899418
0	5053	45.968259992424	0.038312966174
0	5059	46.006572958598	0.000127714711
0	5061	46.006700673309	0.06845757792
0	5069	46.075158251229	0.110068952235
0	5076	46.185227203464	0.003221040631
0	5078	46.188448244095	0.174361346687
0	5086	46.362809590782	0.050576764665
0	5093	46.413386355447	0.007766557771
0	5095	46.421152913218	0.052200367751
0	5104	46.473353280969	0.02922573759
0	5110	46.502579018559	0.10715665122
0	5116	46.609735669779	0.044250501043
0	5121	46.653986170822	0.015918959839
0	5126	46.669905130661	0.016355827194
0	5131	46.686260957855	0.006190116486
0	5133	46.692451074341	0.123127425619
0	5144	46.81557849996	0.001563929137
0	5146	46.817142429097	0.031683143678
0	5154	46.848825572775	0.034492807979
0	5159	46.883318380754	0.00388881736
0	5161	46.887207198114	0.019046591778
0	5170	46.906253789892	0.000760652511
0	5172	46.907014442403	0.022064535976
0	5180	46.929078978379	0.011443277002
0	5185	46.940522255381	0.055845764636
0	5191	46.996368020017	0.006076580728
0	5193	47.002444600745	0.053370017375
0	5201	47.05581461812	0.012466792567
0	5206	47.068281410687	0.096937119541
0	5212	47.165218530228	0.010297779337
0	5217	47.175516309565	0.181502033586
0	5223	47.357018343151	0.042041577441
0	5229	47.399059920592	0.007498549924
0	5234	47.406558470516	0.012634796235
0	5240	47.419193266751	0.112018017878
0	5246	47.531211284629	0.005759224808
0	5248	47.536970509437	0.00572886809
0	5253	47.542699377527	0.0634439092
0	5261	47.606143286727	0.043679445631
0	5266	47.649822732358	0.082747635269
0	5273	47.732570367627	0.117880572667
0	5281	47.850450940294	0.017509689696
0	5286	47.86796062999	0.010321924744
0	5291	47.878282554734	0.000783586859
0	5293	47.879066141593	0.032476804107
0	5301	47.9115429457	0.047853028644
0	5307	47.959395974344	0.091743976168
0	5312	48.051139950512	0.005945464525
0	5314	48.057085415037	0.059310200105
0	5322	48.116395615142	0.040775469455
0	5327	48.157171084597	0.039752946643
0	5332	48.19692403124	0.116151977404
0	5338	48.313076008644	0.006379161915
0	5340	48.319455170559	0.021423209149
0	5348	48.340878379708	0.019043570206
0	5353	48.359921949914	0.036525738618
0	5358	48.396447688532	0.029091199336
0	5363	48.425538887868	0.097077454872
0	5369	48.52261634274	0.043181936915
0	5374	48.565798279655	0.013593714182
0	5379	48.579391993837	0.038158886713
0	5384	48.61755088055	0.019567715048
0	5390	48.637118595598	0.017687691697
0	5395	48.654806287295	0.042271576183
0	5400	48.697077863478	0.070816521879
0	5405	48.767894385357	0.012785224892
0	5410	48.780679610249	0.010134187014
0	5415	48.790813797263	0.017379032724
0	5420	48.808192829987	0.065273297615
0	5425	48.873466127602	0.018739943037
0	5431	48.892206070639	0.004605262419
0	5433	48.896811333058	0.058209213303
0	5441	48.955020546361	0.047019948793
0	5446	49.002040495154	0.088665797511
0	5453	49.090706292665	0.049678287197
0	5458	49.140384579862	0.04320240971
0	5463	49.183586989572	0.013042948928
0	5468	49.1966299385	0.017746123805
0	5473	49.214376062305	0.385854457753
0	5481	49.600230520058	0.0179810025
0	5486	49.618211522558	0.020816193069
0	5492	49.639027715627	0.051296186225
0	5497	49.690323901852	0.051535752502
0	5503	49.741859654354	0.04149331136
0	5508	49.783352965714	0.017718199642
0	5513	49.801071165356	0.051084818445
0	5518	49.852155983801	0.147558731204
0	5525	49.999714715005	0.031454409402
0	5530	50.031169124407	0.002583110443
0	5532	50.03375223485	0.07555841672
0	5540	50.10931065157	0.003176757716
0	5542	50.112487409286	0.071530579499
0	5550	50.184017988785	0.004506042884
0	5553	50.188524031669	0.025972500745
0	5562	50.214496532414	0.147607560913
0	5567	50.362104093327	0.011560229849
0	5572	50.373664323176	0.004416906435
0	5574	50.378081229611	0.105668585097
0	5584	50.483749814708	0.079517704787
0	5589	50.563267519495	0.012015091785
0	5594	50.57528261128	0.046803385585
0	5599	50.622085996865	0.092123981354
0	5606	50.714209978219	0.068988025495
0	5612	50.783198003714	0.035793681322
0	5617	50.818991685036	0.047220195461
0	5624	50.866211880497	0.004366384874
0	5626	50.870578265371	0.111613163209
0	5635	50.98219142858	0.004986202751
0	5637	50.987177631331	0.062772324806
0	5645	51.049949956137	0.112677513583
0	5652	51.16262746972	0.028654211226
0	5657	51.191281680946	0.045321653007
0	5662	51.236603333953	0.002409370241
0	5664	51.239012704194	0.009796691865
0	5669	51.248809396059	0.02064782997
0	5677	51.269457226029	0.002883949883
0	5679	51.272341175912	0.03656346954
0	5687	51.308904645452	0.023991143032
0	5693	51.332895788484	0.011822772581
0	5698	51.344718561065	0.039689075312
0	5703	51.384407636377	0.047607936057
0	5708	51.432015572434	0.031332193069
0	5715	51.463347765503	0.098921691903
0	5720	51.562269457406	0.140643393361
0	5726	51.702912850767	0.005979069531
0	5728	51.708891920298	0.057827252166
0	5737	51.766719172464	0.011162208398
0	5742	51.777881380862	0.119016759043
0	5747	51.896898139905	0.155657547145
0	5753	52.05255568705	0.038119631072
0	5758	52.090675318122	0.023612189084
0	5763	52.114287507206	0.014778155972
0	5768	52.129065663178	0.005357255748
0	5770	52.134422918926	0.018770801161
0	5779	52.153193720087	0.067057187409
0	5785	52.220250907496	0.019730997863
0	5790	52.239981905359	0.025797174209
0	5795	52.265779079568	0.026477992586
0	5800	52.292257072154	0.063936421449
0	5805	52.356193493603	0.053000518676
0	5810	52.409194012279	0.049621590333
0	5815	52.458815602612	0.002707547423
0	5817	52.461523150035	0.032953376846
0	5825	52.494476526881	0.012657990611
0	5830	52.507134517492	0.048448967714
0	5835	52.555583485206	0.114866567022
0	5841	52.670450052228	0.00834729775
0	5846	52.678797349978	0.072553442754
0	5852	52.751350792732	0.016668025711
0	5857	52.768018818443	0.02317976216
0	5862	52.791198580603	0.12206754493
0	5867	52.913266125533	0.063742693428
0	5872	52.977008818961	0.031017350631
0	5877	53.008026169592	0.011216369803
0	5884	53.019242539395	0.006645758203
0	5886	53.025888297598	0.030936681722
0	5894	53.05682497932	0.030209027355
0	5899	53.087034006675	0.057377419248
0	5905	53.144411425923	0.008357551674
0	5910	53.152768977597	0.010704127153
0	5915	53.16347310475	0.015774429565
0	5920	53.179247534315	0.066804190161
0	5925	53.246051724476	0.243030192356
0	5935	53.489081916832	0.005417157576
0	5937	53.494499074408	0.21526430197
0	5947	53.709763376378	0.021469038939
0	5952	53.731232415317	0.038353861843
0	5958	53.76958627716	0.079124754663
0	5964	53.848711031823	0.070462306992
0	5970	53.919173338815	0.031660139065
0	5975	53.95083347788	0.062566031626
0	5981	54.013399509506	0.025575508598
0	5986	54.038975018104	0.023837307486
0	5991	54.06281232559	0.002053278666
0	5993	54.064865604256	0.045873467753
0	6002	54.110739072009	0.00064083791
0	6004	54.111379909919	0.143193022674
0	6012	54.254572932593	0.017019027107
0	6017	54.2715919597	0.041269386466
0	6022	54.312861346166	0.030677721084
0	6027	54.34353906725	0.126908828533
0	6033	54.470447895783	0.005539375527
0	6035	54.47598727131	0.072756081531
0	6043	54.548743352841	0.034209933683
0	6048	54.582953286524	0.043250632647
0	6053	54.626203919171	0.013831097421
0	6059	54.640035016592	0.043573134409
0	6065	54.683608151001	0.060057395707
0	6070	54.743665546708	0.002241401284
0	6072	54.745906947992	0.36615244997
0	6086	55.112059397962	0.033157223926
0	6091	55.145216621888	0.03326868597
0	6097	55.178485307858	0.019021835218
0	6102	55.197507143076	0.03978856666
0	6107	55.237295709736	0.039173417527
0	6112	55.276469127263	0.094681733649
0	6120	55.371150860912	0.084018200613
0	6127	55.455169061525	0.272557668128
0	6132	55.727726729653	0.072091880438
0	6138	55.799818610091	0.059482159359
0	6143	55.85930076945	0.046555132526
0	6149	55.905855901976	0.054665750478
0	6154	55.960521652454	0.063744515472
0	6159	56.024266167926	0.088531968779
0	6164	56.112798136705	0.061371218905
0	6169	56.17416935561	0.036390080532
0	6174	56.210559436142	0.132066721418
0	6179	56.34262615756	4.4194973e-05
0	6181	56.342670352533	0.036334342267
0	6189	56.3790046948	0.104915096686
0	6195	56.483919791486	0.023255490814
0	6200	56.5071752823	0.048867711076
0	6206	56.556042993376	0.052153782306
0	6211	56.608196775682	0.022722939163
0	6216	56.630919714845	0.032858178007
0	6221	56.663777892852	0.168443953349
0	6230	56.832221846201	0.043692333746
0	6235	56.875914179947	0.033438377593
0	6241	56.90935255754	0.013992558537
0	6246	56.923345116077	0.075436577295
0	6251	56.998781693372	0.044434699922
0	6256	57.043216393294	0.068535110008
0	6261	57.111751503302	0.029698196605
0	6266	57.141449699907	0.054451872625
0	6271	57.195901572532	0.005475787471
0	6273	57.201377360003	0.114718776976
0	6281	57.316096136979	0.027211317478
0	6286	57.343307454457	0.057314755178
0	6291	57.400622209635	0.027875178862
0	6298	57.428497388497	0.042507647653
0	6303	57.47100503615	0.038442045899
0	6308	57.509447082049	0.005620040785
0	6310	57.515067122834	0.079211843946
0	6319	57.59427896678	0.083664930356
0	6325	57.677943897136	0.017484468762
0	6331	57.695428365898	0.069993123832
0	6336	57.76542148973	0.053937550846
0	6342	57.819359040576	0.002491470145
0	6344	57.821850510721	0.041869223403
0	6352	57.863719734124	0.023049989082
0	6357	57.886769723206	0.014786002671
0	6362	57.901555725877	0.050523023419
0	6368	57.952078749296	0.014424611496
0	6374	57.966503360792	0.056287598295
0	6380	58.022790959087	0.024383832145
0	6385	58.047174791232	0.074537612122
0	6390	58.121712403354	0.076335183742
0	6395	58.198047587096	0.017204235596
0	6400	58.215251822692	0.063158197934
0	6406	58.278410020626	0.036678199586
0	6412	58.315088220212	0.021290158477
0	6417	58.336378378689	0.158863371735
0	6425	58.495241750424	0.030404410979
0	6430	58.525646161403	0.095731452462
0	6435	58.621377613865	0.121810971886
0	6441	58.743188585751	0.019731592971
0	6446	58.762920178722	0.046156156965
0	6452	58.809076335687	0.014693599087
0	6457	58.823769934774	0.01632245228
0	6462	58.840092387054	0.09682921444
0	6467	58.936921601494	0.036599233084
0	6472	58.973520834578	0.028250637008
0	6477	59.001771471586	0.047628951953
0	6483	59.049400423539	0.016615660208
0	6488	59.066016083747	0.005591110331
0	6490	59.071607194078	0.03362763709
0	6498	59.105234831168	0.140179021603
0	6504	59.245413852771	0.084114344397
0	6510	59.329528197168	0.068808395631
0	6515	59.398336592799	0.018946722686
0	6520	59.417283315485	0.026661098574
0	6526	59.443944414059	0.055262178622
0	6533	59.499206592681	0.043517020773
0	6538	59.542723613454	0.072258801622
0	6543	59.614982415076	0.038386951612
0	6548	59.653369366688	0.024070951731
0	6553	59.677440318419	0.033601607159
0	6559	59.711041925578	0.032071125285
0	6565	59.743113050863	0.0039805342
0	6568	59.747093585063	0.006492850624
0	6573	59.753586435687	0.028771160039
0	6581	59.782357595726	0.003710016608
0	6583	59.786067612334	0.008402586415
0	6588	59.794470198749	0.04640369541
0	6597	59.840873894159	0.078098179735
0	6603	59.918972073894	0.008781139742
0	6608	59.927753213636	0.006708846263
0	6610	59.934462059899	0.02541786034
0	6618	59.959879920239	0.021201678605
0	6623	59.981081598844	0.155286724056
0	6628	60.1363683229	0.183687568971
0	6636	60.320055891871	0.007418500112
0	6638	60.327474391983	0.006238239337
0	6643	60.33371263132	0.029149710152
0	6651	60.362862341472	0.076046233702
0	6656	60.438908575174	0.017519523956
0	6661	60.45642809913	0.015459387887
0	6666	60.471887487017	0.015430631393
0	6671	60.48731811841	0.124094197563
0	6677	60.611412315973	0.002715768383
0	6679	60.614128084356	0.029790575138
0	6687	60.643918659494	0.028653994867
0	6692	60.672572654361	0.00232235867
0	6694	60.674895013031	0.033671278646
0	6702	60.708566291677	0.034014499846
0	6707	60.742580791523	0.039398291979
0	6713	60.781979083502	0.086528635878
0	6719	60.86850771938	0.021687168623
0	6724	60.890194888003	0.058786895477
0	6729	60.94898178348	0.014334597332
0	6734	60.963316380812	0.054109390181
0	6740	61.017425770993	0.13565798388
0	6746	61.153083754873	0.079361080696
0	6751	61.232444835569	0.022205264456
0	6757	61.254650100025	0.031352068515
0	6763	61.28600216854	0.009943883967
0	6768	61.295946052507	0.001042991912
0	6770	61.296989044419	0.014064883689
0	6775	61.311053928108	0.060424579621
0	6783	61.371478507729	0.004926407192
0	6786	61.376404914921	0.047360570733
0	6795	61.423765485654	0.013659793706
0	6800	61.43742527936	0.125188781777
0	6807	61.562614061137	0.039479874453
0	6812	61.60209393559	0.094852048218
0	6817	61.696945983808	0.003111846489
0	6819	61.700057830297	0.045359711939
0	6828	61.745417542236	0.008686529776
0	6833	61.754104072012	0.106156489367
0	6838	61.860260561379	0.156596817915
0	6845	62.016857379294	0.007357220571
0	6848	62.024214599865	0.136955405713
0	6856	62.161170005578	0.042823518368
0	6861	62.203993523946	0.090133155395
0	6866	62.294126679341	0.007912645563
0	6871	62.302039324904	0.052366704122
0	6876	62.354406029026	0.061520465327
0	6881	62.415926494353	0.031471966865
0	6886	62.447398461218	0.042121857488
0	6892	62.489520318706	0.096886374197
0	6897	62.586406692903	0.026301213521
0	6902	62.612707906424	0.017753887401
0	6907	62.630461793825	0.030248976817
0	6912	62.660710770642	0.166273021557
0	6919	62.826983792199	0.05584766164
0	6924	62.882831453839	0.041353026761
0	6929	62.9241844806	0.061625977295
0	6935	62.985810457895	0.042991653489
0	6940	63.028802111384	0.036917668129
0	6945	63.065719779513	0.04246097341
0	6950	63.108180752923	0.00493668182
0	6952	63.113117434743	0.083091852351
0	6961	63.196209287094	0.001403768629
0	6963	63.197613055723	0.009404039301
0	6968	63.207017095024	0.016763510027
0	6976	63.223780605051	0.07758572326
0	6981	63.301366328311	0.040867865722
0	6986	63.342234194033	0.055166548028
0	6991	63.397400742061	0.034127460548
0	6996	63.431528202609	0.134490159418
0	7001	63.566018362027	0.007196961836
0	7003	63.573215323863	0.040104189687
0	7011	63.61331951355	0.023144048084
0	7017	63.636463561634	0.088088688341
0	7022	63.724552249975	0.020133454087
0	7027	63.744685704062	0.043968095088
0	7032	63.78865379915	0.043292663275
0	7037	63.831946462425	0.056716994586
0	7042	63.888663457011	0.064216769107
0	7047	63.952880226118	0.029029287218
0	7053	63.981909513336	0.18555868931
0	7060	64.167468202646	0.056633558311
0	7065	64.224101760957	0.041938324565
0	7070	64.266040085522	0.059270736569
0	7075	64.325310822091	0.231263992427
0	7083	64.556574814518	0.136692367379
0	7089	64.693267181897	0.007582524952
0	7091	64.700849706849	0.028622376342
0	7099	64.729472083191	0.024428783116
0	7104	64.753900866307	0.016159107693
0	7109	64.770059974	0.138215656822
0	7115	64.908275630822	0.074247236137
0	7120	64.982522866959	4.962834e-05
0	7122	64.982572495299	0.077226382811
0	7131	65.05979887811	0.041330027342
0	7136	65.101128905452	0.184114944063
0	7143	65.285243849515	0.03203777443
0	7149	65.317281623945	0.024383819178
0	7154	65.341665443123	0.108128591523
0	7160	65.449794034646	0.022194590944
0	7166	65.47198862559	0.00085285031
0	7168	65.4728414759	0.053629342578
0	7176	65.526470818478	0.052699514357
0	7182	65.579170332835	0.178440329972
0	7187	65.757610662807	0.029708429503
0	7193	65.78731909231	0.175614212297
0	7198	65.962933304607	0.025244448196
0	7203	65.988177752803	0.001575441268
0	7205	65.989753194071	0.019127342693
0	7213	66.008880536764	0.039968041904
0	7218	66.048848578668	0.017153497867
0	7224	66.066002076535	0.062287536283
0	7229	66.128289612818	0.051887415965
0	7235	66.180177028783	0.005865678464
0	7237	66.186042707247	0.083541502566
0	7245	66.269584209813	0.056377683905
0	7250	66.325961893718	0.145945515329
0	7255	66.471907409047	0.0287632864
0	7260	66.500670695447	0.132903951085
0	7266	66.633574646532	0.057037903963
0	7271	66.690612550495	0.001404880395
0	7273	66.69201743089	0.02353307743
0	7282	66.71555050832	0.001003398712
0	7284	66.716553907032	0.08547743403
0	7293	66.802031341062	0.017037682019
0	7298	66.819069023081	0.003526595532
0	7300	66.822595618613	0.000450543219
0	7302	66.823046161832	0.07183834598
0	7314	66.894884507812	0.016510822976
0	7319	66.911395330788	0.006392279673
0	7321	66.917787610461	0.017942957634
0	7329	66.935730568095	0.085940143178
0	7336	67.021670711273	0.0194176138
0	7341	67.041088325073	0.103263840629
0	7349	67.144352165702	0.088973287744
0	7354	67.233325453446	0.027856963419
0	7359	67.261182416865	0.012328544381
0	7365	67.273510961246	0.186199461998
0	7373	67.459710423244	0.119678116658
0	7378	67.579388539902	0.025130008151
0	7385	67.604518548053	0.009513255887
0	7390	67.61403180394	0.195095003821
0	7397	67.809126807761	0.059260042353
0	7403	67.868386850114	0.015331622276
0	7408	67.88371847239	0.078363194423
0	7414	67.962081666813	0.040283862757
0	7419	68.00236552957	0.050080390549
0	7424	68.052445920119	0.018101656177
0	7429	68.070547576296	0.043424202201
0	7434	68.113971778497	0.147432013256
0	7440	68.261403791753	0.05278482377
0	7445	68.314188615523	0.062411965328
0	7450	68.376600580851	0.003699118584
0	7452	68.380299699435	0.001007211385
0	7454	68.38130691082	0.000766072258
0	7456	68.382072983078	0.015306448712
0	7464	68.39737943179	0.037955159668
0	7475	68.435334591458	0.003917593812
0	7477	68.43925218527	0.0792614725
0	7485	68.51851365777	0.031260069355
0	7491	68.549773727125	0.167160413306
0	7497	68.716934140431	0.012557815377
0	7502	68.729491955808	0.093817650855
0	7510	68.823309606663	0.04030532867
0	7515	68.863614935333	0.047172220788
0	7520	68.910787156121	0.005738713964
0	7522	68.916525870085	0.051381706755
0	7532	68.96790757684	0.060459278111
0	7537	69.028366854951	0.074086558061
0	7542	69.102453413012	0.043323334736
0	7547	69.145776747748	0.043249901777
0	7552	69.189026649525	0.007728788063
0	7554	69.196755437588	0.067056782767
0	7562	69.263812220355	0.037941683391
0	7567	69.301753903746	0.004561084441
0	7569	69.306314988187	0.064881445879
0	7578	69.371196434066	0.012542931875
0	7583	69.383739365941	0.014279915979
0	7588	69.39801928192	0.037792964881
0	7593	69.435812246801	0.135014776419
0	7601	69.57082702322	0.003241564095
0	7603	69.574068587315	0.002085253867
0	7605	69.576153841182	0.055998961636
0	7616	69.632152802818	0.09826610248
0	7621	69.730418905298	0.028209210737
0	7626	69.758628116035	0.004146083869
0	7628	69.762774199904	0.038659049554
0	7637	69.801433249458	0.055038514587
0	7643	69.856471764045	0.059350215244
0	7648	69.915821979289	0.008354541349
0	7653	69.924176520638	0.049686355301
0	7658	69.973862875939	0.043036398755
0	7663	70.016899274694	0.126689229995
0	7668	70.143588504689	0.010972420255
0	7673	70.154560924944	0.041348759483
0	7678	70.195909684427	0.001087749253
0	7680	70.19699743368	0.000429640245
0	7682	70.197427073925	0.010675818625
0	7687	70.20810289255	0.02250891348
0	7699	70.23061180603	0.005539333585
0	7701	70.236151139615	0.072790285081
0	7711	70.308941424696	0.0110143423
0	7716	70.319955766996	0.016640376686
0	7721	70.336596143682	0.040956818514
0	7726	70.377552962196	0.023795072107
0	7731	70.401348034303	0.062737384548
0	7736	70.464085418851	0.040591863765
0	7742	70.504677282616	0.019847304736
0	7747	70.524524587352	0.037584696735
0	7754	70.562109284087	0.121281609856
0	7763	70.683390893943	0.127253889888
0	7768	70.810644783831	0.026456700971
0	7773	70.837101484802	0.0828976005
0	7778	70.919999085302	0.008055835927
0	7784	70.928054921229	0.08799825788
0	7790	71.016053179109	0.024726034835
0	7795	71.040779213944	0.10440994695
0	7801	71.145189160894	0.045877505794
0	7807	71.191066666688	0.011005226911
0	7812	71.202071893599	0.039288878417
0	7817	71.241360772016	0.093971225505
0	7823	71.335331997521	0.007273546177
0	7825	71.342605543698	5.052531e-05
0	7827	71.342656069008	0.110614051059
0	7842	71.453270120067	0.064359168441
0	7849	71.517629288508	0.0013263362
0	7851	71.518955624708	0.044313401446
0	7859	71.563269026154	0.034881740634
0	7865	71.598150766788	0.091514133755
0	7870	71.689664900543	0.031721987736
0	7875	71.721386888279	0.013371816232
0	7880	71.734758704511	0.033790404693
0	7885	71.768549109204	0.058946699468
0	7890	71.827495808672	0.038185535209
0	7895	71.865681343881	0.082898355044
0	7901	71.948579698925	0.057534110824
0	7906	72.006113809749	0.005422851358
0	7908	72.011536661107	0.070651439949
0	7916	72.082188101056	0.01990135749
0	7922	72.102089458546	0.021504092661
0	7928	72.123593551207	0.136108154049
0	7934	72.259701705256	0.044898042206
0	7939	72.304599747462	0.001902378208
0	7941	72.30650212567	0.093040390387
0	7950	72.399542516057	0.031112068153
0	7955	72.43065458421	0.128081027289
0	7960	72.558735611499	0.004913775447
0	7962	72.563649386946	0.054730304705
0	7970	72.618379691651	0.026869513632
0	7975	72.645249205283	0.081027252113
0	7981	72.726276457396	0.080090510516
0	7987	72.806366967912	0.005547583899
0	7989	72.811914551811	0.004442177561
0	7994	72.816356729372	0.011575323911
0	7999	72.827932053283	0.028205174193
0	8007	72.856137227476	0.044150598777
0	8012	72.900287826253	0.038620251337
0	8017	72.93890807759	0.094702323603
0	8023	73.033610401193	0.001561622146
0	8025	73.035172023339	0.005432141132
0	8027	73.040604164471	0.043506970308
0	8039	73.084111134779	0.047126900549
0	8044	73.131238035328	0.038131098658
0	8049	73.169369133986	0.017126108217
0	8054	73.186495242203	0.054420276433
0	8059	73.240915518636	0.053828923743
0	8064	73.294744442379	0.074057368177
0	8070	73.368801810556	0.018069290302
0	8075	73.386871100858	0.049991815089
0	8080	73.436862915947	0.168606876384
0	8085	73.605469792331	0.002169978245
0	8087	73.607639770576	0.041771339065
0	8096	73.649411109641	0.018518236718
0	8101	73.667929346359	0.043592900072
0	8106	73.711522246431	0.000544520217
0	8108	73.712066766648	0.054378251517
0	8117	73.766445018165	0.019953773165
0	8122	73.78639879133	0.021146596568
0	8127	73.807545387898	0.005121565993
0	8129	73.812666953891	0.025348760531
0	8137	73.838015714422	0.077641952829
0	8144	73.915657667251	0.029364821124
0	8150	73.945022488375	0.063618123479
0	8155	74.008640611854	0.18752406594
0	8164	74.196164677794	0.057808407362
0	8169	74.253973085156	0.037833333189
0	8174	74.291806418345	0.019712685088
0	8179	74.311519103433	0.06349387078
0	8184	74.375012974213	0.00032371961
0	8186	74.375336693823	0.000553016278
0	8188	74.375889710101	0.049687261677
0	8199	74.425576971778	0.02137152077
0	8204	74.446948492548	0.104272968851
0	8210	74.551221461399	0.045348325388
0	8216	74.596569786787	0.006677090842
0	8218	74.603246877629	0.043038181106
0	8226	74.646285058735	0.001965729693
0	8228	74.648250788428	0.063532770632
0	8236	74.71178355906	0.019363194091
0	8241	74.731146753151	0.091123386342
0	8246	74.822270139493	0.003181843813
0	8248	74.825451983306	0.019709527874
0	8256	74.84516151118	0.036985829244
0	8261	74.882147340424	0.018416017413
0	8266	74.900563357837	0.005068804496
0	8268	74.905632162333	0.007659154514
0	8273	74.913291316847	0.079129950798
0	8282	74.992421267645	0.055495653179
0	8287	75.047916920824	0.029180989886
0	8292	75.07709791071	0.056993433052
0	8298	75.134091343762	0.045305203177
0	8304	75.179396546939	0.1351214563
0	8309	75.314518003239	0.064627437167
0	8314	75.379145440406	0.06063311318
0	8319	75.439778553586	0.137365918551
0	8325	75.577144472137	0.111405564399
0	8330	75.688550036536	0.011424605356
0	8336	75.699974641892	0.097313161425
0	8342	75.797287803317	0.042893420377
0	8347	75.840181223694	0.041429796363
0	8353	75.881611020057	0.029211825714
0	8358	75.910822845771	0.025768472577
0	8363	75.936591318348	0.122774060717
0	8368	76.059365379065	0.029845160869
0	8373	76.089210539934	0.063212856644
0	8379	76.152423396578	0.001079960605
0	8381	76.153503357183	0.038623611332
0	8389	76.192126968515	0.012428690915
0	8395	76.20455565943	0.00382260786
0	8397	76.20837826729	0.01856627291
0	8405	76.2269445402	0.030313792138
0	8410	76.257258332338	0.021659046186
0	8415	76.278917378524	0.121715753485
0	8420	76.400633132009	0.021483562003
0	8425	76.422116694012	0.102427040829
0	8432	76.524543734841	0.020638706828
0	8437	76.545182441669	0.022666879153
0	8443	76.567849320822	0.035104355512
0	8448	76.602953676334	0.043816533603
0	8453	76.646770209937	0.083326445938
0	8459	76.730096655875	0.00550431799
0	8461	76.735600973865	0.008787401534
0	8466	76.744388375399	0.052036719132
0	8475	76.796425094531	0.002297722287
0	8477	76.798722816818	0.055356012546
0	8485	76.854078829364	0.016822257178
0	8490	76.870901086542	0.008460741732
0	8495	76.879361828274	0.126358846746
0	8501	77.00572067502	0.06257836783
0	8506	77.06829904285	0.011738137773
0	8511	77.080037180623	0.028062677266
0	8517	77.108099857889	0.071103174996
0	8522	77.179203032885	0.014020275929
0	8527	77.193223308814	0.049782313025
0	8532	77.243005621839	0.031496337617
0	8537	77.274501959456	0.045285666489
0	8542	77.319787625945	0.014450465633
0	8547	77.334238091578	0.031387546863
0	8552	77.365625638441	0.202866455911
0	8558	77.568492094352	0.028238525281
0	8563	77.596730619633	0.02196807819
0	8569	77.618698697823	0.013949245422
0	8575	77.632647943245	0.050996652823
0	8580	77.683644596068	0.044915798629
0	8585	77.728560394697	0.116966149024
0	8590	77.845526543721	0.041637694879
0	8595	77.8871642386	0.029436323779
0	8600	77.916600562379	0.056374325808
0	8605	77.972974888187	0.014450347711
0	8610	77.987425235898	0.019476607624
0	8615	78.006901843522	0.090518948641
0	8621	78.097420792163	0.033956793015
0	8626	78.131377585178	0.03042935249
0	8631	78.161806937668	0.080812530765
0	8637	78.242619468433	0.005244881868
0	8639	78.247864350301	0.033958168652
0	8647	78.281822518953	0.138381893966
0	8652	78.420204412919	0.086881060651
0	8657	78.50708547357	0.054244410501
0	8662	78.561329884071	0.031698529501
0	8667	78.593028413572	0.016969973798
0	8672	78.60999838737	0.091410027896
0	8680	78.701408415266	0.004288065558
0	8682	78.705696480824	0.000447906061
0	8684	78.706144386885	0.048388970048
0	8695	78.754533356933	0.075218872704
0	8700	78.829752229637	0.022949487867
0	8705	78.852701717504	0.020570995169
0	8711	78.873272712673	0.037889960986
0	8716	78.911162673659	0.024762313223
0	8721	78.935924986882	0.065335573643
0	8726	79.001260560525	0.038579643344
0	8731	79.039840203869	0.020954187261
0	8737	79.06079439113	0.009668582065
0	8742	79.070462973195	0.033089304325
0	8748	79.10355227752	0.0598803294
0	8754	79.16343260692	0.006549561934
0	8756	79.169982168854	0.007860613999
0	8761	79.177842782853	0.000286710518
0	8763	79.178129493371	0.042308515976
0	8774	79.220438009347	0.013127893316
0	8779	79.233565902663	0.01458229187
0	8784	79.248148194533	0.108953221194
0	8791	79.357101415727	0.004607264348
0	8793	79.361708680075	0.153050615397
0	8804	79.514759295472	0.040733250218
0	8809	79.55549254569	0.031311906066
0	8814	79.586804451756	0.007508959508
0	8816	79.594313411264	0.028278928823
0	8825	79.622592340087	0.022960316268
0	8830	79.645552656355	0.026461626814
0	8835	79.672014283169	0.003259464461
0	8837	79.67527374763	0.028178666306
0	8845	79.703452413936	0.032530391955
0	8850	79.735982805891	0.005018326867
0	8852	79.741001132758	0.045533858027
0	8860	79.786534990785	0.052705991725
0	8866	79.83924098251	0.026125849678
0	8871	79.865366832188	0.007749327136
0	8873	79.873116159324	0.109137446273
0	8881	79.982253605597	0.109482517074
0	8887	80.091736122671	0.189482440518
0	8892	80.281218563189	0.046584168186
0	8897	80.327802731375	0.059726987384
0	8902	80.387529718759	0.033493494758
0	8908	80.421023213517	0.030281974441
0	8913	80.451305187958	0.029903911777
0	8919	80.481209099735	0.049807648314
0	8924	80.531016748049	0.02794251631
0	8929	80.558959264359	0.011788156223
0	8934	80.570747420582	0.003164411234
0	8936	80.573911831816	0.011893376646
0	8941	80.585805208462	0.017123845296
0	8949	80.602929053758	0.129768097776
0	8955	80.732697151534	0.011997319586
0	8960	80.74469447112	0.06707032215
0	8965	80.81176479327	0.058044696075
0	8970	80.869809489345	0.007435791365
0	8972	80.87724528071	0.00704049656
0	8977	80.88428577727	0.106742001492
0	8985	80.991027778762	0.075159387325
0	8990	81.066187166087	0.000456503168
0	8992	81.066643669255	0.021180073298
0	9000	81.087823742553	0.019104050631
0	9005	81.106927793184	0.007909361309
0	9007	81.114837154493	0.001302996027
0	9012	81.11614015052	0.02295618975
0	9020	81.13909634027	0.015849180002
0	9025	81.154945520272	0.014550510231
0	9030	81.169496030503	0.007754582699
0	9032	81.177250613202	0.021417982008
0	9040	81.19866859521	0.011946348809
0	9045	81.210614944019	0.046692025372
0	9050	81.257306969391	0.167741758799
0	9057	81.42504872819	0.022582324497
0	9062	81.447631052687	0.035479635082
0	9067	81.483110687769	0.018218351765
0	9072	81.501329039534	0.111522306833
0	9077	81.612851346367	0.117864878511
0	9082	81.730716224878	0.097741106984
0	9088	81.828457331862	0.012645974631
0	9093	81.841103306493	0.043593484193
0	9098	81.884696790686	0.013166823587
0	9103	81.897863614273	0.006685768911
0	9105	81.904549383184	0.099113635131
0	9114	82.003663018315	0.024882303693
0	9119	82.028545322008	0.117511579227
0	9124	82.146056901235	0.002655569764
0	9126	82.148712470999	0.00398467057
0	9128	82.152697141569	0.009964571609
0	9136	82.162661713178	0.063530613668
0	9144	82.226192326846	0.055268209318
0	9149	82.281460536164	0.017710805516
0	9154	82.29917134168	0.037109225314
0	9159	82.336280566994	0.012072624599
0	9164	82.348353191593	0.017270588455
0	9169	82.365623780048	0.035364832277
0	9175	82.400988612325	0.036211536026
0	9180	82.437200148351	0.013792729457
0	9186	82.450992877808	0.126435039252
0	9193	82.57742791706	0.07188535839
0	9199	82.64931327545	0.254218242461
0	9206	82.903531517911	0.000170475286
0	9208	82.903701993197	0.060795967637
0	9216	82.964497960834	0.063589793409
0	9222	83.028087754243	0.018518792511
0	9227	83.046606546754	0.10696005069
0	9236	83.153566597444	0.049213350069
0	9241	83.202779947513	0.05126925606
0	9246	83.254049203573	0.07042161321
0	9251	83.324470816783	0.051176426381
0	9256	83.375647243164	0.018080981221
0	9261	83.393728224385	0.077021930533
0	9266	83.470750154918	0.007309632252
0	9268	83.47805978717	0.030376665122
0	9276	83.508436452292	0.003512571728
0	9278	83.51194902402	0.081475951152
0	9288	83.593424975172	0.14260196844
0	9294	83.736026943612	0.001333435583
0	9296	83.737360379195	0.012069113778
0	9301	83.749429492973	0.035125022629
0	9309	83.784554515602	0.122354845772
0	9318	83.906909361374	0.029027814392
0	9323	83.935937175766	0.048278164484
0	9329	83.98421534025	0.084058183225
0	9336	84.068273523475	0.068192723173
0	9341	84.136466246648	0.117153752235
0	9346	84.253619998883	0.002895721235
0	9348	84.256515720118	0.00975178769
0	9354	84.266267507808	0.062461377735
0	9364	84.328728885543	0.084709634231
0	9371	84.413438519774	0.010699476102
0	9376	84.424137995876	0.074078035473
0	9381	84.498216031349	0.029648671504
0	9386	84.527864702853	0.079571094807
0	9391	84.60743579766	0.055590577456
0	9397	84.663026375116	0.144070756974
0	9402	84.80709713209	0.188424425734
0	9409	84.995521557824	0.038412002498
0	9415	85.033933560322	0.07467209232
0	9421	85.108605652642	0.041986513947
0	9426	85.150592166589	0.068026216123
0	9432	85.218618382712	0.056687835626
0	9438	85.275306218338	0.021774373465
0	9443	85.297080591803	0.065491714024
0	9448	85.362572305827	0.044362392405
0	9453	85.406934698232	0.000291869037
0	9455	85.407226567269	0.019467980427
0	9464	85.426694547696	0.05161509855
0	9469	85.478309646246	0.079766877139
0	9475	85.558076523385	0.010250227541
0	9480	85.568326750926	0.313153469504
0	9488	85.88148022043	0.054292996582
0	9494	85.935773217012	0.056797169824
0	9499	85.992570386836	0.022888992415
0	9504	86.015459379251	0.035775001337
0	9509	86.051234380588	0.058148479468
0	9515	86.109382860056	0.019944715961
0	9520	86.129327576017	0.060553528956
0	9526	86.189881104973	0.006841515573
0	9528	86.196722620546	0.001653192282
0	9530	86.198375812828	0.063199244226
0	9541	86.261575057054	0.026288817288
0	9547	86.287863874342	0.242800821035
0	9554	86.530664695377	0.11670245495
0	9561	86.647367150327	0.024595469773
0	9567	86.6719626201	0.001684921464
0	9569	86.673647541564	0.032603559769
0	9577	86.706251101333	0.00275063859
0	9579	86.709001739923	0.007768868504
0	9584	86.716770608427	0.006748020971
0	9586	86.723518629398	0.001417178192
0	9591	86.72493580759	0.003484412194
0	9593	86.728420219784	0.036487807845
0	9607	86.764908027629	0.044201343829
0	9612	86.809109371458	0.014296191955
0	9618	86.823405563413	0.082705552303
0	9623	86.906111115716	0.002109487921
0	9625	86.908220603637	0.012670324172
0	9630	86.920890927809	0.028199759547
0	9639	86.949090687356	0.06176016718
0	9645	87.010850854536	0.019216902177
0	9650	87.030067756713	0.058252684645
0	9655	87.088320441358	0.010737354312
0	9660	87.09905779567	0.00481740053
0	9662	87.1038751962	0.027327659278
0	9670	87.131202855478	0.021469404902
0	9675	87.15267226038	0.034619520767
0	9680	87.187291781147	0.166384466889
0	9686	87.353676248036	0.012024656533
0	9691	87.365700904569	0.062612289514
0	9697	87.428313194083	0.03549588386
0	9702	87.463809077943	0.006697227852
0	9704	87.470506305795	0.043943632906
0	9712	87.514449938701	0.022682419437
0	9717	87.537132358138	0.033005058178
0	9722	87.570137416316	0.018993833622
0	9727	87.589131249938	0.06767439419
0	9733	87.656805644128	0.03738223639
0	9738	87.694187880518	0.189005910346
0	9746	87.883193790864	0.137126346974
0	9751	88.020320137838	0.021964316882
0	9756	88.04228445472	0.039382289565
0	9761	88.081666744285	0.015182032041
0	9766	88.096848776326	0.005605001371
0	9768	88.102453777697	0.041570749346
0	9777	88.144024527043	0.024276609063
0	9782	88.168301136106	0.029986352979
0	9787	88.198287489085	0.006594867801
0	9789	88.204882356886	0.034762018644
0	9797	88.23964437553	0.069355491168
0	9803	88.308999866698	0.016921721708
0	9808	88.325921588406	0.022437033953
0	9813	88.348358622359	0.025046468193
0	9819	88.373405090552	0.022820996198
0	9824	88.39622608675	0.122738889225
0	9829	88.518964975975	0.014859662701
0	9834	88.533824638676	0.063217317117
0	9839	88.597041955793	0.011917925482
0	9844	88.608959881275	0.08451890471
0	9849	88.693478785985	0.030320691406
0	9854	88.723799477391	0.010997655711
0	9859	88.734797133102	0.003537391166
0	9861	88.738334524268	0.045394949881
0	9870	88.783729474149	0.018134628252
0	9875	88.801864102401	0.029842506673
0	9880	88.831706609074	0.063190882582
0	9886	88.894897491656	0.077430465639
0	9892	88.972327957295	0.147073516771
0	9899	89.119401474066	0.036931791035
0	9904	89.156333265101	0.049844200798
0	9909	89.206177465899	0.01876267038
0	9914	89.224940136279	0.037602255071
0	9920	89.26254239135	0.00038773177
0	9922	89.26293012312	0.048752248957
0	9930	89.311682372077	0.001563466964
0	9932	89.313245839041	0.079310736791
0	9940	89.392556575832	0.005077633775
0	9942	89.397634209607	0.060359793992
0	9950	89.457994003599	0.020581987426
0	9955	89.478575991025	0.007995169322
0	9957	89.486571160347	0.036842213794
0	9965	89.523413374141	0.044428904837
0	9970	89.567842278978	0.018761014994
0	9975	89.586603293972	0.060814643414
0	9981	89.647417937386	0.013467682894
0	9986	89.66088562028	0.007123619906
0	9988	89.668009240186	0.075594391823
0	9997	89.743603632009	0.044374811271
0	10003	89.78797844328	0.019942145358
0	10009	89.807920588638	0.038749533449
0	10014	89.846670122087	0.087737004849
0	10019	89.934407126936	0.060864463377
0	10025	89.995271590313	0.002591085774
0	10027	89.997862676087	0.003961433613
0	10029	90.0018241097	0.024676486357
0	10040	90.026500596057	0.089167514594
0	10046	90.115668110651	0.041663570773
0	10051	90.157331681424	0.000811051282
0	10053	90.158142732706	0.010313615342
0	10058	90.168456348048	0.013905113146
0	10063	90.182361461194	0.12494118981
0	10072	90.307302651004	0.02373798545
0	10077	90.331040636454	0.013862129151
0	10082	90.344902765605	0.064359369223
0	10087	90.409262134828	0.008488133616
0	10092	90.417750268444	0.012021572905
0	10097	90.429771841349	0.041367496462
0	10102	90.471139337811	0.018049564031
0	10107	90.489188901842	0.048904082887
0	10112	90.538092984729	0.004137832235
0	10115	90.542230816964	0.053427594251
0	10123	90.595658411215	0.009625505145
0	10128	90.60528391636	0.17292786549
0	10133	90.77821178185	0.114252681433
0	10138	90.892464463283	0.026018049404
0	10143	90.918482512687	0.044557248652
0	10148	90.963039761339	0.024250867716
0	10153	90.987290629055	0.044427847446
0	10158	91.031718476501	0.000460107196
0	10160	91.032178583697	0.026130809293
0	10168	91.05830939299	0.057843852251
0	10173	91.116153245241	0.04656273728
0	10178	91.162715982521	0.029246217216
0	10183	91.191962199737	0.097290407011
0	10189	91.289252606748	0.048168935305
0	10196	91.337421542053	0.014389209145
0	10201	91.351810751198	0.152641740338
0	10207	91.504452491536	0.011631606182
0	10212	91.516084097718	0.05823922598
0	10217	91.574323323698	0.083924474295
0	10222	91.658247797993	0.00468673208
0	10224	91.662934530073	0.03289375795
0	10232	91.695828288023	0.020199617879
0	10237	91.716027905902	0.041349061295
0	10242	91.757376967197	0.118844290624
0	10247	91.876221257821	0.019712825491
0	10252	91.895934083312	0.12087810675
0	10257	92.016812190062	0.039836297026
0	10262	92.056648487088	0.082078575281
0	10268	92.138727062369	0.078260225501
0	10275	92.21698728787	0.01755468556
0	10280	92.23454197343	0.209038282257
0	10286	92.443580255687	0.07447962853
0	10291	92.518059884217	0.065992802834
0	10296	92.584052687051	0.029307480864
0	10301	92.613360167915	0.030662789909
0	10306	92.644022957824	0.07022440607
0	10311	92.714247363894	0.034801623881
0	10317	92.749048987775	0.151651778313
0	10325	92.900700766088	0.065788942363
0	10331	92.966489708451	0.019200187306
0	10336	92.985689895757	0.023272583132
0	10341	93.008962478889	0.009696702815
0	10346	93.018659181704	0.081078338331
0	10351	93.099737520035	0.003049792791
0	10353	93.102787312826	0.044271085129
0	10362	93.147058397955	0.060535710022
0	10367	93.207594107977	0.043990801092
0	10372	93.251584909069	0.035649283157
0	10377	93.287234192226	0.069544148147
0	10385	93.356778340373	0.155163289182
0	10390	93.511941629555	0.146362274207
0	10395	93.658303903762	0.057355970303
0	10401	93.715659874065	0.020777216851
0	10407	93.736437090916	0.040080915941
0	10412	93.776518006857	0.056388121821
0	10417	93.832906128678	0.000858904846
0	10419	93.833765033524	0.12166784547
0	10428	93.955432878994	0.039234224013
0	10433	93.994667103007	0.039132994061
0	10438	94.033800097068	0.020803949034
0	10443	94.054604046102	0.109174811767
0	10448	94.163778857869	0.008295205871
0	10453	94.17207406374	0.097580632973
0	10458	94.269654696713	0.062970126922
0	10463	94.332624823635	0.114572135217
0	10469	94.447196958852	0.064813404648
0	10474	94.5120103635	0.044604907928
0	10479	94.556615271428	0.099749139173
0	10484	94.656364410601	0.00534274155
0	10486	94.661707152151	0.106622207321
0	10494	94.768329359472	0.005066525556
0	10496	94.773395885028	0.024413245659
0	10505	94.797809130687	0.046365625812
0	10510	94.844174756499	0.039950032237
0	10515	94.884124788736	0.077056072619
0	10520	94.961180861355	0.014384647114
0	10525	94.975565508469	0.02876522973
0	10530	95.004330738199	0.023607140835
0	10535	95.027937879034	0.065063407724
0	10541	95.093001286758	0.024810677153
0	10546	95.117811963911	0.070189398987
0	10552	95.188001362898	0.017582709931
0	10557	95.205584072829	0.035176977346
0	10562	95.240761050175	0.00046687042
0	10564	95.241227920595	0.023000103454
0	10572	95.264228024049	0.114022834532
0	10577	95.378250858581	0.017492364937
0	10583	95.395743223518	0.084016983712
0	10589	95.47976020723	0.021080928105
0	10594	95.500841135335	0.025886796929
0	10599	95.526727932264	0.118226852424
0	10605	95.644954784688	0.081272240858
0	10610	95.726227025546	0.000356474857
0	10612	95.726583500403	0.036914246212
0	10620	95.763497746615	0.034267838194
0	10625	95.797765584809	0.008971998963
0	10630	95.806737583772	0.006806120431
0	10632	95.813543704203	0.011967376889
0	10640	95.825511081092	0.01502791886
0	10645	95.840538999952	0.024493279185
0	10650	95.865032279137	0.024653485699
0	10656	95.889685764836	0.09386832988
0	10662	95.983554094716	0.009362480227
0	10667	95.992916574943	0.07604162045
0	10673	96.068958195393	0.06447307249
0	10680	96.133431267883	0.051770166501
0	10685	96.185201434384	0.025063979726
0	10691	96.21026541411	0.001816133053
0	10693	96.212081547163	0.017300597284
0	10701	96.229382144447	0.032606082703
0	10708	96.26198822715	0.033722023211
0	10715	96.295710250361	0.007646877015
0	10717	96.303357127376	0.011200893727
0	10725	96.314558021103	0.010111359174
0	10730	96.324669380277	0.11587778911
0	10736	96.440547169387	0.195017132124
0	10744	96.635564301511	0.012733018776
0	10749	96.648297320287	0.096232575981
0	10754	96.744529896268	0.026822276422
0	10760	96.77135217269	0.05128352769
0	10766	96.82263570038	0.101530437044
0	10771	96.924166137424	0.031150356104
0	10776	96.955316493528	0.129142034863
0	10781	97.084458528391	0.090448805015
0	10787	97.174907333406	0.011672642145
0	10792	97.186579975551	0.016794217297
0	10798	97.203374192848	0.00545183632
0	10800	97.208826029168	0.083881453449
0	10808	97.292707482617	0.007074878714
0	10810	97.299782361331	0.003055976099
0	10815	97.30283833743	0.037232073914
0	10823	97.340070411344	0.01429910168
0	10828	97.354369513024	0.000407471598
0	10830	97.354776984622	0.010849724192
0	10836	97.365626708814	0.088885829034
0	10844	97.454512537848	0.010453632346
0	10849	97.464966170194	0.020200602115
0	10854	97.485166772309	0.002252464778
0	10856	97.487419237087	0.026445658962
0	10865	97.513864896049	0.060514971464
0	10870	97.574379867513	0.059395407864
0	10875	97.633775275377	0.030401935761
0	10880	97.664177211138	0.019919851072
0	10885	97.68409706221	0.005781472448
0	10887	97.689878534658	0.043073890989
0	10897	97.732952425647	0.004696084416
0	10899	97.737648510063	0.037322759673
0	10908	97.774971269736	0.003310660801
0	10910	97.778281930537	0.158129488615
0	10919	97.936411419152	0.073778864493
0	10924	98.010190283645	0.034448268317
0	10929	98.044638551962	0.066323676994
0	10935	98.110962228956	0.078687777074
0	10940	98.18965000603	0.001352404829
0	10942	98.191002410859	0.187517969303
0	10950	98.378520380162	0.00702260671
0	10952	98.385542986872	2.0105499e-05
0	10954	98.385563092371	0.045070473515
0	10966	98.430633565886	0.082879387663
0	10972	98.513512953549	0.067155129099
0	10978	98.580668082648	0.016102231174
0	10983	98.596770313822	0.02904534695
0	10988	98.625815660772	0.027520686564
0	10993	98.653336347336	0.063066455349
0	10999	98.716402802685	0.024614675205
0	11004	98.74101747789	0.050921549097
0	11010	98.791939026987	0.097323486366
0	11016	98.889262513353	0.011086064257
0	11021	98.90034857761	0.047550312044
0	11026	98.947898889654	0.094989971704
0	11031	99.042888861358	0.001995229697
0	11033	99.044884091055	0.031965422527
0	11041	99.076849513582	0.014006675146
0	11046	99.090856188728	0.041394314626
0	11051	99.132250503354	0.009123488625
0	11057	99.141373991979	0.102420730452
0	11062	99.243794722431	0.022660948164
0	11067	99.266455670595	0.026605822573
0	11073	99.293061493168	0.102781489583
0	11079	99.395842982751	0.113168766683
0	11085	99.509011749434	0.018765292031
0	11091	99.527777041465	0.098920846022
0	11097	99.626697887487	0.024853286701
0	11102	99.651551174188	0.040294459483
0	11107	99.691845633671	0.055995121847
0	11113	99.747840755518	0.006149918596
0	11115	99.753990674114	0.005145484957
0	11120	99.759136159071	0.007458845512
0	11125	99.766595004583	0.145015087283
0	11134	99.911610091866	0.117145883245
0	11139	100.028755975111	0.014346180071
0	11144	100.043102155182	0.008016448528
0	11149	100.05111860371	0.013114615351
0	11154	100.064233219061	0.081785723494
0	11160	100.146018942555	0.021148786233
0	11165	100.167167728788	0.075643740694
0	11171	100.242811469482	0.012866482407
0	11176	100.255677951889	0.00306580336
0	11178	100.258743755249	0.032092388718
0	11186	100.290836143967	0.00115525965
0	11188	100.291991403617	0.039635251743
0	11196	100.33162665536	0.018412600039
0	11201	100.350039255399	0.073152508377
0	11206	100.423191763776	0.117203845959
0	11211	100.540395609735	0.007947830091
0	11216	100.548343439826	0.008206430834
0	11221	100.55654987066	0.001082780385
0	11223	100.557632651045	0.075618729494
0	11232	100.633251380539	0.029589705144
0	11237	100.662841085683	0.029009491605
0	11242	100.691850577288	0.01902078883
0	11247	100.710871366118	0.014581650746
0	11252	100.725453016864	0.00325070798
0	11254	100.728703724844	0.004867810495
0	11259	100.733571535339	0.073209149371
0	11267	100.80678068471	0.014154382619
0	11272	100.820935067329	0.00969950048
0	11277	100.830634567809	0.177871566728
0	11283	101.008506134537	0.134449692786
0	11288	101.142955827323	0.028961579081
0	11293	101.171917406404	0.144603467204
0	11298	101.316520873608	0.108256624024
0	11303	101.424777497632	7.457021e-05
0	11305	101.424852067842	0.062601517184
0	11315	101.487453585026	0.018942737903
0	11320	101.506396322929	0.018075461441
0	11325	101.52447178437	0.022221579311
0	11330	101.546693363681	0.050029226391
0	11337	101.596722590072	0.001314587897
0	11339	101.598037177969	0.09590746729
0	11348	101.693944645259	0.071188643731
0	11355	101.76513328899	0.006800934008
0	11357	101.771934222998	0.018189981984
0	11365	101.790124204982	0.057858672707
0	11373	101.847982877689	0.119953587384
0	11378	101.967936465073	0.042075146443
0	11384	102.010011611516	0.046361055074
0	11389	102.05637266659	0.135381834441
0	11396	102.191754501031	0.060769210777
0	11401	102.252523711808	0.074242130186
0	11407	102.326765841994	0.049731552851
0	11412	102.376497394845	0.05208418893
0	11418	102.428581583775	0.04277976583
0	11425	102.471361349605	0.002050725
0	11427	102.473412074605	0.050138979302
0	11435	102.523551053907	0.027765037686
0	11441	102.551316091593	0.018463148187
0	11446	102.56977923978	0.018815984917
0	11451	102.588595224697	0.033892762219
0	11456	102.622487986916	0.024211621578
0	11462	102.646699608494	0.004430593082
0	11465	102.651130201576	0.03702324066
0	11473	102.688153442236	0.011252256478
0	11478	102.699405698714	0.066373043334
0	11484	102.765778742048	0.018583641472
0	11489	102.78436238352	0.079962688935
0	11494	102.864325072455	0.006247991957
0	11496	102.870573064412	0.093948012252
0	11504	102.964521076664	0.027207402097
0	11509	102.991728478761	0.063548843104
0	11516	103.055277321865	0.071502613438
0	11521	103.126779935303	0.071045272627
0	11527	103.19782520793	0.001728491937
0	11529	103.199553699867	0.223765004632
0	11541	103.423318704499	0.009546458938
0	11546	103.432865163437	0.063219913967
0	11552	103.496085077404	0.075901937983
0	11557	103.571987015387	0.000531441677
0	11559	103.572518457064	0.022313790255
0	11567	103.594832247319	0.045222458958
0	11573	103.640054706277	0.016936848203
0	11578	103.65699155448	0.035430299183
0	11583	103.692421853663	0.080915485473
0	11588	103.773337339136	0.015156645435
0	11593	103.788493984571	0.007828821294
0	11595	103.796322805865	0.087974833658
0	11603	103.884297639523	0.141121652568
0	11609	104.025419292091	0.111689219258
0	11615	104.137108511349	0.156545398892
0	11621	104.293653910241	0.002004627368
0	11623	104.295658537609	0.004063197327
0	11625	104.299721734936	0.002188049393
0	11627	104.301909784329	0.061629014973
0	11641	104.363538799302	0.130627174785
0	11646	104.494165974087	0.103121397223
0	11652	104.59728737131	0.031289329167
0	11658	104.628576700477	0.053733783758
0	11663	104.682310484235	0.001688885192
0	11665	104.683999369427	0.019824046898
0	11673	104.703823416325	0.088811978276
0	11679	104.792635394601	0.086693364898
0	11687	104.879328759499	0.03680345634
0	11692	104.916132215839	0.011227283668
0	11697	104.927359499507	0.012188752306
0	11703	104.939548251813	0.003251525692
0	11705	104.942799777505	0.073449042951
0	11713	105.016248820456	0.088630601848
0	11719	105.104879422304	0.024263748913
0	11724	105.129143171217	0.035543662245
0	11730	105.164686833462	0.077365677577
0	11735	105.242052511039	0.0730256547
0	11741	105.315078165739	0.020155554613
0	11746	105.335233720352	0.047020094375
0	11751	105.382253814727	0.007149326492
0	11753	105.389403141219	0.117029822834
0	11762	105.506432964053	0.015730610917
0	11767	105.52216357497	0.043929587494
0	11774	105.566093162464	0.061582620173
0	11779	105.627675782637	0.12228495073
0	11785	105.749960733367	0.137363176761
0	11791	105.887323910128	0.168639180713
0	11797	106.055963090841	0.003944201978
0	11799	106.059907292819	0.005783587585
0	11804	106.065690880404	0.089512594136
0	11813	106.15520347454	0.072564672703
0	11819	106.227768147243	0.02146867879
0	11824	106.249236826033	0.088644166259
0	11831	106.337880992292	0.03514323568
0	11837	106.373024227972	0.00138773408
0	11839	106.374411962052	0.089004914492
0	11848	106.463416876544	0.071815580592
0	11853	106.535232457136	0.040624946416
[...]
19	28165	259.071579088759	0.057246360511183
19	28173	259.12882544927	0.12372915343166
19	28190	259.252554602702	0.46240560165328
19	28235	259.714960204355	3.5099846839302
19	28570	263.224944888285	3.3897448937983
19	28928	266.614689782083	3.5362241227815
19	29306	270.150913904865	0.61733004449495
19	29367	270.76824394936	1.4280155039514
19	29525	272.196259453311	2.1624114034157
19	29738	274.358670856727	2.7641428272675
19	30031	277.122813683994	1.9951662026965
19	30231	279.117979886691	0.74999372489992
19	30306	279.867973611591	0.27168880827511
19	30331	280.139662419866	0.24728260676942
19	30374	280.386945026635	2.2743036806538
19	30647	282.661248707289	0.3260244932288
19	30691	282.987273200518	1.5530555636574
19	30844	284.540328764175	0.82823561441778
19	30948	285.368564378593	0.19378866664694
19	30955	285.56235304524	2.1026374588931
19	31147	287.664990504133	0.28315075676304
19	31203	287.948141260896	0.11155752835742
19	31210	288.059698789253	4.6085006036628
19	31691	292.668199392916	0.25765464462756
19	31708	292.925854037544	0.37857534544237
19	31751	293.304429382986	4.3454818545948
19	32219	297.649911237581	0.30423296579999
19	32233	297.954144203381	1.1365072037313
19	32373	299.090651407112	2.7106979345943
19	32622	301.801349341706	1.1236375066072
19	32742	302.924986848313	0.64476202208299
19	32812	303.569748870396	4.5021706825634
19	33295	308.071919552959	0.88797081403043
19	33369	308.959890366989	3.7990985021161
19	33724	312.758988869105	1.1044294672118
19	33826	313.863418336317	2.8163672280258
19	34159	316.679785564343	4.4856904717297
19	34595	321.165476036073	0.82837707644592
19	34660	321.993853112519	0.5878435052714
19	34723	322.58169661779	0.65670958722294
19	34792	323.238406205013	0.83629621195735
19	34927	324.07470241697	1.3519260224505
19	35057	325.42662843942	4.2137238009059
19	35483	329.640352240326	0.76521929282027
19	35599	330.405571533146	5.8637643609654
19	36204	336.269335894111	0.77222406890017
19	36266	337.041559963011	0.16055892133263
19	36293	337.202118884344	0.018657845964884
19	36296	337.220776730309	0.58855688004815
19	36368	337.809333610357	5.3070657496732
19	37035	343.11639936003	2.3423278418727
19	37252	345.458727201903	3.3407753727325
19	37667	348.799502574636	2.1641482296495
19	37892	350.963650804285	3.0046384487936
19	38267	353.968289253079	0.45396550663967
19	38315	354.422254759719	0.7141966341285
19	38385	355.136451393848	1.6144489898528
19	38561	356.750900383701	1.6158338562981
19	38720	358.366734239999	1.4033740811198
19	38912	359.770108321119	0.51356720662196
19	39014	360.283675527741	0.099543313951668
19	39020	360.383218841693	1.4271266502824
19	39152	361.810345491975	1.998987332343
19	39383	363.809332824318	0.11185182383837
19	39390	363.921184648156	0.9822411565052
19	39492	364.903425804661	0.92124587715831
19	39598	365.824671681819	10.784064988096
19	40707	376.608736669915	3.4525253195732
19	41116	380.061261989488	0.92660824404146
19	41211	380.987870233529	0.97851988449922
19	41283	381.966390118028	0.55632143970173
19	41334	382.52271155773	0.78046651875515
19	41392	383.303178076485	0.1149481599509
19	41403	383.418126236436	3.6645144286382
19	41805	387.082640665074	1.0254658251439
19	41965	388.108106490218	0.24113945934135
19	41993	388.349245949559	0.18788414543995
19	42019	388.537130094999	0.7499393016038
19	42147	389.287069396603	0.23910839255893
19	42179	389.526177789162	2.5859655326079
19	42413	392.11214332177	0.25494518259299
19	42434	392.367088504363	2.5835732898046
19	42684	394.950661794168	0.47131973510541
19	42754	395.421981529273	0.52032139670782
19	42837	395.942302925981	5.0331636281129
20	1273	13.098734852249	2.7422642377274
20	1539	15.840999089976	1.7652116546719
20	1718	17.606210744648	0.43642827786478
20	1794	18.042639022513	4.6982193641082
20	2376	22.740858386621	1.1606196780487
20	2525	23.90147806467	1.9800791713273
20	2793	25.881557235997	1.3197286810034
20	2915	27.201285917	2.2518220712904
20	3208	29.45310798829	2.9886668704174
20	3503	32.441774858707	0.20008953756704
20	3539	32.641864396274	4.808792837763
20	4093	37.450657234037	0.51394168897117
20	4146	37.964598923008	1.0139457307362
20	4265	38.978544653744	6.5447573194362
20	4973	45.52330197318	1.890996327624
20	5239	47.414298300804	4.0438402741552
20	5714	51.458138574959	2.2281297231971
20	5945	53.686268298156	0.95343745674426
20	6058	54.6397057549	0.0063324794073145
20	6061	54.646038234307	0.28079885067206
20	6083	54.926837084979	0.45714859148164
20	6125	55.383985676461	0.4795195670993
20	6145	55.86350524356	2.0677319563621
20	6367	57.931237199922	1.9463693692477
20	6602	59.87760656917	1.2337925539689
20	6745	61.111399123139	2.844139044129
20	7049	63.955538167268	1.8105776305305
20	7192	65.766115797799	1.3413232882141
20	7348	67.107439086013	0.49301973440604
20	7384	67.600458820419	6.5824223274091
20	8163	74.182881147828	2.3111418439974
20	8431	76.494022991825	0.21375506348728
20	8458	76.707778055312	3.0792208617169
20	8862	79.786998917029	0.60973929797944
20	8907	80.396738215008	2.0015823116402
20	9174	82.398320526648	0.053213059548065
20	9188	82.451533586196	1.4245438155567
20	9316	83.876077401753	3.0767970905935
20	9641	86.952874492347	2.8235366917011
20	10002	89.776411184048	1.5444470809713
20	10194	91.320858265019	0.0044620773881876
20	10195	91.325320342407	2.3343308429159
20	10397	93.659651185323	1.5116331788346
20	10551	95.171284364158	0.39494470510007
20	10604	95.566229069258	0.88929029117613
20	10741	96.455519360434	0.32051838592764
20	10762	96.776037746362	5.6527938651592
20	11420	102.428831611521	6.791303494747
20	12145	109.220135106268	1.994662039076
20	12320	111.214797145344	3.1160258354843
20	12616	114.330822980828	0.51475568358113
20	12679	114.845578664409	4.5616911703154
20	13225	119.407269834724	1.2095895328818
20	13354	120.616859367606	2.4155720316478
20	13613	123.032431399254	1.2985707101311
20	13744	124.331002109385	3.4656180715692
20	14098	127.796620180954	5.9417946565925
20	14648	133.738414837547	0.7911849238043
20	14764	134.529599761351	1.0882316145221
20	14915	135.617831375873	0.41610209131279
20	14963	136.033933467186	2.2357098004127
20	15201	138.269643267599	2.0912919886977
20	15428	140.360935256297	0.87853188582727
20	15511	141.239467142124	1.8470947345754
20	15695	143.086561876699	1.5325583261485
20	15841	144.619120202847	0.22106784574373
20	15859	144.840188048591	5.6476687637733
20	16532	150.487856812364	0.06470271331227
20	16539	150.552559525676	2.7912912878928
20	16872	153.343850813569	0.072764761813998
20	16888	153.416615575383	0.50430315629258
20	16962	153.920918731676	0.890027047947
20	17053	154.810945779623	1.0213471803226
20	17159	155.832292959946	4.5795548984098
20	17551	160.411847858356	0.73466598166035
20	17615	161.146513840016	1.7737586648768
20	17860	162.920272504893	2.4351640346381
20	18183	165.355436539531	0.37238123351299
20	18233	165.727817773044	1.4679388944797
20	18388	167.195756667524	0.0976016790927
20	18405	167.293358346617	0.23874236239272
20	18412	167.53210070901	0.41294658916739
20	18465	167.945047298177	5.3645598515635
20	19058	173.30960714974	0.5378445673801
20	19123	173.84745171712	0.2747893431061
20	19145	174.122241060226	0.0027672575360972
20	19146	174.125008317762	0.26723907162622
20	19184	174.392247389388	1.9769287380377
20	19428	176.369176127426	1.7082633520389
20	19625	178.077439479465	2.465917944321
20	19878	180.543357423786	1.5861214319156
20	20039	182.129478855702	2.2487192824375
20	20265	184.378198138139	0.81895631812279
20	20330	185.197154456262	8.4335903887729
20	21296	193.630744845035	7.4951217905096
20	21966	201.125866635545	0.067410979745751
20	21974	201.193277615291	0.16069677893591
20	21990	201.353974394227	1.6691627345168
20	22158	203.023137128744	0.0092197933446769
20	22159	203.032356922089	0.30274409057022
20	22184	203.335101012659	1.5577249698042
20	22363	204.892825982463	4.225515186303
20	22814	209.118341168766	0.70120491572411
20	22857	209.81954608449	7.2612959566743
20	23659	217.080842041164	0.57398362097089
20	23702	217.654825662135	0.6977718574438
20	23818	218.352597519579	1.7137018515308
20	24005	220.06629937111	6.8332631074469
20	24697	226.899562478557	9.1339997278147
20	25700	236.033562206372	1.4084856531667
20	25843	237.442047859539	0.090257467801048
20	25855	237.53230532734	1.567478924438
20	25997	239.099784251778	0.48642767810092
20	26017	239.586211929879	1.6401747874746
20	26162	241.226386717354	0.77772762568327
20	26246	242.004114343037	1.037363200075
20	26416	243.041477543112	1.7989132765981
20	26606	244.84039081971	1.7755858524227
20	26834	246.615976672133	3.7186425526811
20	27188	250.334619224814	0.69629483379402
20	27250	251.030914058608	0.45023097425141
20	27338	251.481145032859	1.5183203863796
20	27461	252.999465419239	0.28365791770852
20	27463	253.283123336948	0.67229324663507
20	27524	253.955416583583	1.7513981509641
20	27764	255.706814734547	3.7088353481294
20	28212	259.415650082676	6.1681804739284
20	28811	265.583830556604	0.90787277522644
20	28915	266.49170333183	1.1380222942983
20	29023	267.629725626128	3.7751339742681
20	29448	271.404859600396	1.433393878363
20	29607	272.838253478759	2.8185562385653
20	29873	275.656809717324	2.9068390516094
20	30185	278.563648768933	0.46071977951088
20	30230	279.024368548444	1.1223108354818
20	30335	280.146679383926	8.370215912993
20	31257	288.516895296919	4.3774608686585
20	31707	292.894356165578	3.6230497958401
20	32101	296.517405961418	0.24567689335697
20	32138	296.763082854775	2.391013618502
20	32379	299.154096473277	0.045228641574219
20	32380	299.199325114851	1.2469680501913
20	32510	300.446293165042	4.2546119188463
20	32964	304.700905083888	1.9804481017202
20	33160	306.681353185608	7.0322822214019
20	33804	313.71363540701	1.4717787551909
20	33990	315.185414162201	5.0150503580751
20	34508	320.200464520276	1.7652230985979
20	34659	321.965687618874	3.0533408809239
20	35038	325.019028499798	2.6099284150823
20	35277	327.62895691488	3.3907179407306
20	35668	331.019674855611	2.1337039690672
20	35895	333.153378824678	1.4077722825142
20	36043	334.561151107192	2.1227814966169
20	36238	336.683932603809	2.3964365504358
20	36523	339.080369154245	2.5396535447615
20	36827	341.620022699007	1.3347752982511
20	37019	342.954797997258	3.5592992494904
20	37393	346.514097246748	5.0392697582511
20	37954	351.553367004999	3.3579165778178
20	38369	354.911283582817	3.2672224850063
20	38693	358.178506067823	2.5714660839311
20	39045	360.749972151754	0.42626551336063
20	39093	361.176237665115	1.2003293691691
20	39231	362.376567034284	0.38290289113547
20	39265	362.759469925419	0.036883657959571
20	39269	362.796353583379	2.7774393228383
20	39573	365.573792906217	0.21139057773244
20	39586	365.785183483949	2.0967042094664
20	39801	367.881887693415	0.20498854202843
20	39815	368.086876235443	3.733213731168
20	40167	371.820089966611	7.4726966956692
20	41049	379.29278666228	3.4048534944021
20	41358	382.697640156682	3.8677404982677
20	41757	386.56538065495	0.32343034919412
20	41792	386.888811004144	0.35159537144558
20	41853	387.24040637559	0.14945974391115
20	41895	387.389866119501	3.9224903274218
20	42338	391.312356446923	2.5666414646322
20	42610	393.878997911555	4.6001628967201
20	43101	398.479160808275	0.52945121981845
20	43163	399.008612028093	0.59173886700633
20	43264	399.600350895099	0.26973699284758
20	43290	399.870087887947	4.2689581962091
21	1392	14.388365633271	0.37448889390912
21	1424	14.76285452718	1.2924362791125
21	1562	16.055290806292	0.30966604095781
21	1604	16.36495684725	0.53220035324399
21	1640	16.897157200494	2.3468106386667
21	1954	19.243967839161	5.2531261718188
21	2619	24.49709401098	1.0505795609261
21	2740	25.547673571906	1.6180558538884
21	2914	27.165729425794	1.5366508150483
21	3095	28.702380240842	0.59108279860752
21	3180	29.29346303945	0.63924761500495
21	3254	29.932710654455	0.64208328513477
21	3305	30.57479393959	3.8254157330884
21	3779	34.400209672678	0.9773697276658
21	3846	35.377579400344	1.3431767091214
21	4019	36.720756109465	2.7161730355438
21	4356	39.436929145009	1.6863830852414
21	4461	41.12331223025	0.39985755157099
21	4504	41.523169781821	4.0871408259144
21	4988	45.610310607735	1.3351706084354
21	5187	46.94548121617	3.9070210969805
21	5623	50.85250231315	0.8632888456482
21	5733	51.715791158798	2.2416830142247
21	5977	53.957474173023	5.3297468521485
21	6509	59.287221025172	5.1970345959161
21	7082	64.484255621088	2.5628220861503
21	7343	67.047077707238	0.65199086627542
21	7395	67.699068573513	1.6127019557392
21	7574	69.311770529252	1.1644016673076
21	7741	70.47617219656	0.19775818321206
21	7761	70.673930379772	0.6125856033204
21	7822	71.286515983092	3.8647257217815
21	8303	75.151241704874	0.29065699219813
21	8321	75.441898697072	5.0349637275712
21	8918	80.476862424643	2.3852708553086
21	9205	82.862133279952	2.0372138260808
21	9408	84.899347106033	0.51930945237962
21	9460	85.418656558413	0.49460078243534
21	9493	85.913257340848	1.8712067540255
21	9745	87.784464094873	1.8456636263084
21	9980	89.630127721181	7.4833515993394
21	10786	97.11347932052	1.4620446665087
21	10977	98.575523987029	1.330351300146
21	11133	99.905875287175	2.2688689224696
21	11394	102.174744209645	1.8405747749755
21	11608	104.01531898462	0.83233558010657
21	11685	104.847654564727	0.89916725797008
21	11784	105.746821822697	1.1308272379822
21	11903	106.877649060679	0.55554984523329
21	11973	107.433198905912	2.2617647896647
21	12182	109.694963695577	0.65246292846893
21	12232	110.347426624046	0.48676495685942
21	12266	110.834191580905	0.20759501115228
21	12298	111.041786592057	3.53011943494
21	12639	114.571906026997	1.719522618361
21	12845	116.291428645358	0.94703549636484
21	12911	117.238464141723	5.6998670337333
21	13602	122.938331175456	0.86617223416882
21	13703	123.804503409625	2.3107706421988
21	13936	126.115274051824	1.6817772017819
21	14099	127.797051253606	0.36057383524151
21	14122	128.157625088848	2.8567723362161
21	14374	131.014397425064	2.0714641331192
21	14580	133.085861558183	3.9776413831798
21	15052	137.063502941363	1.5678135337613
21	15248	138.631316475124	0.43905170441303
21	15297	139.070368179537	6.8571116577006
21	15981	145.927479837238	2.078186649504
21	16187	148.005666486742	0.56187451535997
21	16274	148.567541002102	0.32790877040897
21	16323	148.895449772511	1.4917368275433
21	16508	150.387186600054	1.1161396544789
21	16653	151.503326254533	0.45097589900034
21	16719	151.954302153533	0.82671983697405
21	16806	152.781021990507	1.0303725089693
21	16940	153.811394499476	0.43094685095568
21	16984	154.242341350432	0.32584262913707
21	17038	154.568183979569	2.3729367866736
21	17236	156.941120766243	3.9430010272729
21	17593	160.884121793516	1.8916791354199
21	17848	162.775800928936	0.33336188228019
21	17887	163.109162811216	4.0826395299822
21	18387	167.191802341198	1.3355260425597
21	18524	168.527328383758	0.17913103358553
21	18564	168.706459417344	0.89955188650463
21	18650	169.606011303849	0.25416843885364
21	18664	169.860179742703	0.53558449676934
21	18717	170.395764239472	2.5440789341748
21	19029	172.939843173647	0.086333267822473
21	19031	173.026176441469	0.77703242977221
21	19122	173.803208871241	1.0825225074686
21	19231	174.88573137871	2.2111912574037
21	19499	177.096922636114	0.14420250009282
21	19527	177.241125136207	0.82617066054158
21	19624	178.067295796749	0.56929570047891
21	19688	178.636591497228	4.5892485854634
21	20137	183.225840082691	0.97967034595242
21	20241	184.205510428643	1.7550345009044
21	20434	185.960544929547	3.8447891992066
21	20887	189.805334128754	1.0851701274248
21	21037	190.890504256179	0.79121842387052
21	21128	191.68172268005	0.38574860916061
21	21167	192.067471289211	2.4295702284626
21	21381	194.497041517674	1.7974711486658
21	21594	196.29451266634	3.0382730483371
21	21854	199.332785714677	2.9731086799023
21	22067	202.305894394579	2.0863260979919
21	22309	204.392220492571	0.80557471465079
21	22392	205.197795207222	2.9518333910418
21	22721	208.149628598264	0.60173390290477
21	22771	208.751362501169	2.2939273985096
21	22973	211.045289899679	0.36462250054533
21	23027	211.409912400224	1.0933339962653
21	23154	212.503246396489	0.56234644521883
21	23240	213.065592841708	0.68415921589667
21	23343	213.749752057605	0.35838887582605
21	23363	214.108140933431	0.11210449798722
21	23381	214.220245431418	2.4110624731653
21	23618	216.631307904583	1.0340744557959
21	23703	217.665382360379	7.7840083049982
21	24569	225.449390665377	4.8055309823412
21	25121	230.254921647718	2.0612903668181
21	25320	232.316212014536	1.5431515072434
21	25453	233.859363521779	1.745119652124
21	25655	235.604483173903	0.063598083906374
21	25659	235.668081257809	1.1844029651159
21	25780	236.852484222925	8.1016910939627
21	26620	244.954175316888	0.36864169869894
21	26674	245.322817015587	0.46054851621641
21	26754	245.783365531803	4.6044455043253
21	27191	250.387811036128	0.89300988061626
21	27309	251.280820916744	0.24558312162614
21	27342	251.52640403837	0.19881561120973
21	27355	251.72521964958	2.3780970854359
21	27542	254.103316735016	6.4405590636199
21	28311	260.543875798636	1.610671684071
21	28468	262.154547482707	6.0950257677024
21	29107	268.249573250409	0.3264644693959
21	29125	268.576037719805	0.14796292620183
21	29141	268.724000646007	3.7356172548698
21	29553	272.459617900877	3.800088785936
21	29952	276.259706686813	1.7468082546273
21	30123	278.00651494144	0.86238981216411
21	30218	278.868904753604	1.3458097368891
21	30346	280.214714490493	2.6353062362883
21	30676	282.850020726781	0.64566979888049
21	30752	283.495690525661	0.68971975608025
21	30823	284.185410281741	1.6579413024897
21	30972	285.843351584231	0.012067798262284
21	30978	285.855419382493	1.8144448922488
21	31151	287.669864274742	1.0012685218787
21	31280	288.671132796621	0.5950765287146
21	31331	289.266209325336	4.0518716503142
21	31752	293.31808097565	0.030038656501608
21	31763	293.348119632152	0.12532818132517
21	31783	293.473447813477	1.7003301989276
21	31970	295.173778012405	2.1859146598152
21	32203	297.35969267222	0.047253850123632
21	32204	297.406946522344	0.64820236106562
21	32268	298.05514888341	0.97106413321929
21	32371	299.026213016629	0.5670691550162
21	32426	299.593282171645	1.3169729089498
21	32547	300.910255080595	1.2014874027709
21	32650	302.111742483366	0.19871949026655
21	32693	302.310461973633	3.1285408991226
21	33022	305.439002872756	0.18899116470761
21	33055	305.627994037464	1.1579536755922
21	33173	306.785947713056	0.98024990113807
21	33262	307.766197614194	1.5599337730708
21	33407	309.326131387265	1.0712457011207
21	33523	310.397377088386	2.9385938578191
21	33778	313.335970946205	0.66731936095603
21	33849	314.003290307161	1.0634750506024
21	33984	315.066765357763	0.16494394026161
21	33998	315.231709298025	0.19572769563476
21	34013	315.42743699366	4.0105947582376
21	34448	319.438031751898	0.17945034725352
21	34488	319.617482099152	0.34054915972789
21	34496	319.95803125888	0.77860427915428
21	34560	320.736635538034	0.67045400998309
21	34607	321.407089548017	4.5257072334031
21	35082	325.93279678142	0.77832005009741
21	35178	326.711116831517	0.28000162541882
21	35216	326.991118456936	0.73217441056898
21	35290	327.723292867505	3.1842569907495
21	35666	330.907549858255	0.02592216312906
21	35667	330.933472021384	0.16701639689699
21	35681	331.100488418281	3.6905098533957
21	36066	334.790998271677	0.99504348603434
21	36161	335.786041757711	7.4485440095076
21	37049	343.234585767219	9.4333774759809
21	38070	352.6679632432	0.16809447692821
21	38104	352.836057720128	4.4716334548295
21	38594	357.307691174957	0.14441022345954
21	38623	357.452101398417	0.95290667970484
21	38733	358.405008078122	1.2075218920253
21	38891	359.612529970147	1.0889268588734
21	39039	360.70145682902	2.1068314934602
21	39270	362.80828832248	2.0648974958651
21	39491	364.873185818345	12.704005175596
21	40830	377.577190993941	2.174541555169
21	41087	379.75173254911	0.56118465210623
21	41143	380.312917201216	5.4721784519745
21	41664	385.78509565319	2.843071184522
21	42035	388.628166837712	0.90902125287531
21	42180	389.537188090587	3.0347646650962
21	42458	392.571952755683	4.0229543607368
21	42878	396.59490711642	4.3398014677996

