version 2
run Nonmonitoring-exponential-572-20210224-17:49:33-27092
attr configname Nonmonitoring-exponential
attr datetime 20210224-17:49:33
attr experiment Nonmonitoring-exponential
attr inifile aerocom.ini
attr iterationvars $0=50
attr iterationvarsf 50-
attr measurement $0=50
attr network Aerocom
attr processid 27092
attr repetition 72
attr replication #72
attr resultdir results
attr runnumber 572
attr seedset 72
param **.t 2s
param **.k 50ms
param **.X 0.05s
param **.m 1s
param **.tDistribution "\"exponential\""
param **.operationMode 1
param **.s "70 byte"
param **.dimPoolMax 10000
param **.dimPoolMin 8000
param **.nDL 16
param **.nA 1
param **.DLMaxCapacity 0
param **.trasmitting false

vector 0 Aerocom.aircraft[0].packetGenerator arrivalTime:vector ETV
attr "" ""
attr source computeArrivalTime
vector 1 Aerocom.aircraft[0].linkSelector waitingTime:vector ETV
attr "" ""
attr source computeWaitingTime
vector 2 Aerocom.aircraft[0].linkSelector queueLength:vector ETV
attr "" ""
attr source computeQueueLength
vector 3 Aerocom.aircraft[0].dataLink[3] actualCapacity:vector ETV
attr "" ""
attr source computeActualCapacity
vector 4 Aerocom.aircraft[0].linkSelector serviceTime:vector ETV
attr "" ""
attr source computeServiceTime
vector 5 Aerocom.aircraft[0].linkSelector responseTime:vector ETV
attr "" ""
attr source computeResponseTime
vector 6 Aerocom.aircraft[0].dataLink[2] tDistribution:vector ETV
attr "" ""
attr source computeTDistribution
vector 7 Aerocom.aircraft[0].dataLink[10] tDistribution:vector ETV
attr "" ""
attr source computeTDistribution
vector 8 Aerocom.aircraft[0].dataLink[9] tDistribution:vector ETV
attr "" ""
attr source computeTDistribution
vector 9 Aerocom.aircraft[0].dataLink[12] tDistribution:vector ETV
attr "" ""
attr source computeTDistribution
vector 10 Aerocom.aircraft[0].dataLink[15] tDistribution:vector ETV
attr "" ""
attr source computeTDistribution
vector 11 Aerocom.aircraft[0].dataLink[11] tDistribution:vector ETV
attr "" ""
attr source computeTDistribution
vector 12 Aerocom.aircraft[0].dataLink[5] tDistribution:vector ETV
attr "" ""
attr source computeTDistribution
vector 13 Aerocom.aircraft[0].dataLink[4] tDistribution:vector ETV
attr "" ""
attr source computeTDistribution
vector 14 Aerocom.aircraft[0].dataLink[3] tDistribution:vector ETV
attr "" ""
attr source computeTDistribution
vector 15 Aerocom.aircraft[0].dataLink[7] tDistribution:vector ETV
attr "" ""
attr source computeTDistribution
vector 16 Aerocom.aircraft[0].dataLink[13] tDistribution:vector ETV
attr "" ""
attr source computeTDistribution
vector 17 Aerocom.aircraft[0].dataLink[1] tDistribution:vector ETV
attr "" ""
attr source computeTDistribution
vector 18 Aerocom.aircraft[0].dataLink[6] tDistribution:vector ETV
attr "" ""
attr source computeTDistribution
vector 19 Aerocom.aircraft[0].dataLink[8] tDistribution:vector ETV
attr "" ""
attr source computeTDistribution
vector 20 Aerocom.aircraft[0].dataLink[14] tDistribution:vector ETV
attr "" ""
attr source computeTDistribution
vector 21 Aerocom.aircraft[0].dataLink[0] tDistribution:vector ETV
attr "" ""
attr source computeTDistribution
0	1006	10.0240547806	0.021971461198
0	1011	10.046026241798	0.05158625014
0	1016	10.097612491938	0.038997844178
0	1021	10.136610336116	0.175192030037
0	1028	10.311802366153	0.014925863828
0	1033	10.326728229981	0.054905442907
0	1039	10.381633672888	0.035357961702
0	1044	10.41699163459	0.043207857311
0	1050	10.460199491901	0.010164278554
0	1055	10.470363770455	0.004543378256
0	1057	10.474907148711	0.037536416491
0	1065	10.512443565202	0.209572198256
0	1072	10.722015763458	0.06865838316
0	1079	10.790674146618	0.002707399091
0	1081	10.793381545709	0.013887922804
0	1089	10.807269468513	0.059745100884
0	1094	10.867014569397	0.011704339105
0	1100	10.878718908502	0.022850995786
0	1105	10.901569904288	0.061915107502
0	1110	10.96348501179	0.040265716932
0	1115	11.003750728722	0.054144735512
0	1120	11.057895464234	0.02495251826
0	1125	11.082847982494	0.099180910662
0	1131	11.182028893156	0.084305827721
0	1137	11.266334720877	0.01370622479
0	1142	11.280040945667	0.019006756732
0	1147	11.299047702399	0.00696789685
0	1149	11.306015599249	0.018410328273
0	1157	11.324425927522	0.011139880496
0	1162	11.335565808018	0.007180158104
0	1164	11.342745966122	0.024267408577
0	1172	11.367013374699	0.002551537652
0	1174	11.369564912351	0.005025646346
0	1179	11.374590558697	0.167961598211
0	1188	11.542552156908	0.04148312147
0	1193	11.584035278378	0.052473798815
0	1199	11.636509077193	0.02650093075
0	1204	11.663010007943	0.110838796787
0	1209	11.77384880473	0.053912465391
0	1215	11.827761270121	0.133993810212
0	1222	11.961755080333	0.017523343724
0	1227	11.979278424057	0.004467827417
0	1229	11.983746251474	0.168103526502
0	1239	12.151849777976	0.10624198256
0	1244	12.258091760536	0.011353704973
0	1249	12.269445465509	0.089732763723
0	1254	12.359178229232	0.033982862926
0	1259	12.393161092158	0.044887610653
0	1264	12.438048702811	0.07029346642
0	1271	12.508342169231	0.011965047428
0	1277	12.520307216659	0.046570380598
0	1282	12.566877597257	0.109289395342
0	1287	12.676166992599	0.123867940123
0	1293	12.800034932722	0.017037956349
0	1298	12.817072889071	0.030861117946
0	1303	12.847934007017	0.065171819627
0	1309	12.913105826644	0.042429586409
0	1314	12.955535413053	0.04970484885
0	1321	13.005240261903	0.010882545396
0	1326	13.016122807299	0.027739363456
0	1331	13.043862170755	0.01030819732
0	1336	13.054170368075	0.013322295255
0	1341	13.06749266333	0.033329299376
0	1346	13.100821962706	0.013822356886
0	1351	13.114644319592	0.046811643428
0	1356	13.16145596302	0.042925449379
0	1361	13.204381412399	0.252593264364
0	1369	13.456974676763	0.043407224462
0	1374	13.500381901225	0.002536672236
0	1376	13.502918573461	0.065359867065
0	1385	13.568278440526	0.115314885391
0	1392	13.683593325917	0.054000065048
0	1397	13.737593390965	0.136419533169
0	1404	13.874012924134	0.115536006048
0	1411	13.989548930182	0.104588254846
0	1418	14.094137185028	0.000620336137
0	1420	14.094757521165	0.00861670346
0	1425	14.103374224625	0.020106458058
0	1433	14.123480682683	0.155036438346
0	1439	14.278517121029	0.102635502465
0	1445	14.381152623494	0.008317307979
0	1450	14.389469931473	0.080160901555
0	1455	14.469630833028	0.053341470848
0	1460	14.522972303876	0.033112901205
0	1465	14.556085205081	0.09370338047
0	1470	14.649788585551	0.005350861121
0	1472	14.655139446672	0.077130978345
0	1481	14.732270425017	0.060786161961
0	1487	14.793056586978	0.001413799361
0	1490	14.794470386339	0.018428387365
0	1498	14.812898773704	0.009845947666
0	1503	14.82274472137	0.055724953818
0	1509	14.878469675188	0.056921684528
0	1515	14.935391359716	0.027900982072
0	1520	14.963292341788	0.076252031129
0	1526	15.039544372917	0.001587518002
0	1528	15.041131890919	0.043933013668
0	1536	15.085064904587	0.074435523094
0	1541	15.159500427681	0.033074759541
0	1546	15.192575187222	0.031747316511
0	1551	15.224322503733	0.000879779276
0	1553	15.225202283009	0.031269518848
0	1561	15.256471801857	0.012021998777
0	1566	15.268493800634	0.010872210936
0	1571	15.27936601157	0.011809971958
0	1576	15.291175983528	0.048847334827
0	1582	15.340023318355	0.009642324057
0	1587	15.349665642412	0.028601714928
0	1592	15.37826735734	0.083552416939
0	1600	15.461819774279	0.000841033691
0	1602	15.46266080797	0.163036922687
0	1611	15.625697730657	0.000387442139
0	1613	15.626085172796	0.019413771611
0	1621	15.645498944407	0.018848150386
0	1626	15.664347094793	0.00627888264
0	1629	15.670625977433	0.004406929947
0	1634	15.67503290738	0.052538317644
0	1643	15.727571225024	0.042603592257
0	1648	15.770174817281	0.162334608999
0	1656	15.93250942628	0.016558854701
0	1661	15.949068280981	0.034701585088
0	1666	15.983769866069	0.038682697812
0	1672	16.022452563881	0.015672920164
0	1677	16.038125484045	0.036643106466
0	1683	16.074768590511	0.097512646176
0	1688	16.172281236687	0.038191236442
0	1694	16.210472473129	0.001164808167
0	1696	16.211637281296	0.008187687008
0	1701	16.219824968304	0.086818643114
0	1709	16.306643611418	0.070224867574
0	1716	16.376868478992	0.054523017277
0	1721	16.431391496269	0.00873404223
0	1726	16.440125538499	0.060223725698
0	1731	16.500349264197	0.001703565697
0	1733	16.502052829894	0.044769385553
0	1742	16.546822215447	0.004607126867
0	1744	16.551429342314	0.043251078628
0	1752	16.594680420942	0.001759259641
0	1754	16.596439680583	0.027935202908
0	1762	16.624374883491	0.10322917786
0	1767	16.727604061351	0.00323501177
0	1769	16.730839073121	0.12238433007
0	1777	16.853223403191	0.053460098224
0	1784	16.906683501415	0.067037576992
0	1791	16.973721078407	0.014129174093
0	1796	16.9878502525	0.000991652897
0	1798	16.988841905397	0.010980853623
0	1803	16.99982275902	0.030477448145
0	1812	17.030300207165	0.026715012398
0	1817	17.057015219563	0.044645687853
0	1822	17.101660907416	0.006191556503
0	1824	17.107852463919	0.017297126257
0	1832	17.125149590176	0.011833145242
0	1837	17.136982735418	0.130841598347
0	1845	17.267824333765	0.002590876496
0	1847	17.270415210261	0.036339387492
0	1855	17.306754597753	0.133730051531
0	1862	17.440484649284	0.016244593708
0	1867	17.456729242992	0.010658024668
0	1872	17.46738726766	0.022504870262
0	1877	17.489892137922	0.106253227327
0	1883	17.596145365249	0.110893515931
0	1889	17.70703888118	0.027839686503
0	1895	17.734878567683	0.04480373017
0	1901	17.779682297853	0.049534250911
0	1906	17.829216548764	0.011580597086
0	1911	17.84079714585	0.026002296328
0	1916	17.866799442178	0.06197425041
0	1921	17.928773692588	0.004146315367
0	1923	17.932920007955	0.002120441431
0	1925	17.935040449386	0.056954668868
0	1940	17.991995118254	0.038077304723
0	1945	18.030072422977	0.022984028785
0	1950	18.053056451762	0.100358363563
0	1957	18.153414815325	0.010440614144
0	1962	18.163855429469	0.01952122674
0	1967	18.183376656209	0.009227743531
0	1972	18.19260439974	0.002026399325
0	1974	18.194630799065	0.064172025873
0	1983	18.258802824938	0.005419040066
0	1985	18.264221865004	0.084230450576
0	1994	18.34845231558	0.042964795764
0	2000	18.391417111344	0.001295669871
0	2002	18.392712781215	0.28781630126
0	2012	18.680529082475	0.018343905957
0	2017	18.698872988432	0.002099407075
0	2019	18.700972395507	8.9218823e-05
0	2021	18.70106161433	0.076121304772
0	2032	18.777182919102	0.022419157652
0	2038	18.799602076754	0.089493419617
0	2043	18.889095496371	0.077727786555
0	2048	18.966823282926	0.001557201383
0	2050	18.968380484309	0.0279287158
0	2059	18.996309200109	0.064507393256
0	2065	19.060816593365	0.001499115515
0	2067	19.06231570888	0.054194320932
0	2075	19.116510029812	0.024412371106
0	2080	19.140922400918	0.018840375531
0	2085	19.159762776449	0.090524826678
0	2090	19.250287603127	0.013287783232
0	2095	19.263575386359	0.056622692198
0	2101	19.320198078557	0.028497114745
0	2106	19.348695193302	0.012661293171
0	2111	19.361356486473	0.062434083111
0	2116	19.423790569584	0.116933825507
0	2122	19.540724395091	0.075086141695
0	2128	19.615810536786	0.055602722433
0	2133	19.671413259219	0.074146260577
0	2138	19.745559519796	0.108244536061
0	2143	19.853804055857	0.033999400731
0	2148	19.887803456588	0.045625455558
0	2154	19.933428912146	0.023907456424
0	2159	19.95733636857	0.006411346233
0	2161	19.963747714803	0.008771564257
0	2169	19.97251927906	0.026794097014
0	2174	19.999313376074	0.003978233569
0	2176	20.003291609643	0.170027231014
0	2185	20.173318840657	0.049541064759
0	2190	20.222859905416	0.059922730529
0	2196	20.282782635945	0.111382231067
0	2201	20.394164867012	0.049625418665
0	2206	20.443790285677	0.020916816011
0	2212	20.464707101688	0.096676642884
0	2217	20.561383744572	0.103152157493
0	2222	20.664535902065	0.04000123612
0	2227	20.704537138185	0.014515860376
0	2233	20.719052998561	0.104434834678
0	2240	20.823487833239	0.095058677635
0	2247	20.918546510874	0.01108589664
0	2252	20.929632407514	0.006048707286
0	2254	20.9356811148	0.016705461032
0	2262	20.952386575832	0.02317492369
0	2267	20.975561499522	0.079011428771
0	2272	21.054572928293	0.011956137364
0	2277	21.066529065657	0.03099925802
0	2282	21.097528323677	0.010916017886
0	2288	21.108444341563	0.028813529815
0	2293	21.137257871378	0.048957465643
0	2298	21.186215337021	0.015188912984
0	2303	21.201404250005	0.113675144723
0	2308	21.315079394728	0.076314945616
0	2313	21.391394340344	0.04760931593
0	2318	21.439003656274	0.006524205981
0	2320	21.445527862255	0.002023356695
0	2325	21.44755121895	0.019080385058
0	2333	21.466631604008	0.076063640072
0	2338	21.54269524408	0.147494409127
0	2343	21.690189653207	0.063895664841
0	2349	21.754085318048	0.011067460504
0	2354	21.765152778552	0.017271999692
0	2359	21.782424778244	0.016704012235
0	2364	21.799128790479	0.126745890921
0	2369	21.9258746814	0.071462526921
0	2375	21.997337208321	0.092090920155
0	2380	22.089428128476	0.310520139371
0	2388	22.399948267847	0.012938127224
0	2393	22.412886395071	0.029909296939
0	2398	22.44279569201	0.021873268874
0	2403	22.464668960884	0.002751023431
0	2405	22.467419984315	0.074945146291
0	2413	22.542365130606	0.001358944811
0	2415	22.543724075417	0.170805529819
0	2424	22.714529605236	0.046921388495
0	2429	22.761450993731	0.072236932505
0	2435	22.833687926236	0.078740003976
0	2440	22.912427930212	0.008810757867
0	2445	22.921238688079	0.021400522054
0	2451	22.942639210133	0.021930237141
0	2456	22.964569447274	0.009955805071
0	2461	22.974525252345	0.093319633818
0	2466	23.067844886163	0.050924757702
0	2471	23.118769643865	0.027054800637
0	2476	23.145824444502	0.07231612095
0	2481	23.218140565452	0.011209503236
0	2486	23.229350068688	0.137005392687
0	2493	23.366355461375	0.077596715511
0	2499	23.443952176886	0.180850423377
0	2504	23.624802600263	0.031679964105
0	2509	23.656482564368	0.033278255481
0	2514	23.689760819849	5.277622e-05
0	2516	23.689813596069	0.021703538067
0	2524	23.711517134136	0.003901867408
0	2526	23.715419001544	0.002219018476
0	2528	23.71763802002	0.070148898687
0	2539	23.787786918707	0.020202843126
0	2545	23.807989761833	0.069891303382
0	2550	23.877881065215	0.035602904507
0	2555	23.913483969722	0.026057593313
0	2560	23.939541563035	0.005781346023
0	2562	23.945322909058	0.031785484356
0	2570	23.977108393414	0.145400491051
0	2576	24.122508884465	0.065752657158
0	2581	24.188261541623	0.005317397382
0	2583	24.193578939005	0.07620402192
0	2592	24.269782960925	0.001532425573
0	2594	24.271315386498	0.137899024791
0	2604	24.409214411289	0.00216138311
0	2606	24.411375794399	0.042574999154
0	2614	24.453950793553	0.051196661919
0	2620	24.505147455472	0.041730184826
0	2625	24.546877640298	0.069047273118
0	2631	24.615924913416	0.019995476791
0	2636	24.635920390207	0.006818110781
0	2639	24.642738500988	0.068426824109
0	2647	24.711165325097	0.085694678134
0	2652	24.796860003231	0.00208330685
0	2654	24.798943310081	0.00172120052
0	2656	24.800664510601	0.060027032835
0	2667	24.860691543436	0.031534485464
0	2672	24.8922260289	0.02256787973
0	2677	24.91479390863	0.107977085742
0	2682	25.022770994372	0.094169728952
0	2688	25.116940723324	0.131684256295
0	2695	25.248624979619	0.042035669496
0	2700	25.290660649115	0.015194059297
0	2705	25.305854708412	0.000279864559
0	2707	25.306134572971	0.00269030618
0	2709	25.308824879151	0.016625528628
0	2718	25.325450407779	0.045754932838
0	2726	25.371205340617	0.029878118848
0	2731	25.401083459465	0.071771052495
0	2737	25.47285451196	0.270905012769
0	2743	25.743759524729	0.028905613925
0	2748	25.772665138654	0.024442427458
0	2753	25.797107566112	0.053549476185
0	2759	25.850657042297	0.023451703219
0	2764	25.874108745516	0.010178102935
0	2769	25.884286848451	0.002619433314
0	2771	25.886906281765	0.002188342784
0	2773	25.889094624549	0.00801343138
0	2778	25.897108055929	0.0279603141
0	2789	25.925068370029	0.05600725252
0	2794	25.981075622549	0.007033307132
0	2796	25.988108929681	0.004284099432
0	2801	25.992393029113	0.002159989783
0	2803	25.994553018896	0.03211346678
0	2814	26.026666485676	0.008460021428
0	2819	26.035126507104	0.058925010506
0	2824	26.09405151761	0.139093132475
0	2830	26.233144650085	0.031271198247
0	2836	26.264415848332	0.148484106632
0	2842	26.412899954964	0.168645277826
0	2847	26.58154523279	0.054263319378
0	2852	26.635808552168	0.005553091122
0	2854	26.64136164329	0.082903833452
0	2863	26.724265476742	0.059974537859
0	2868	26.784240014601	0.060057267586
0	2873	26.844297282187	0.023312068808
0	2878	26.867609350995	0.057987289677
0	2883	26.925596640672	0.079466922216
0	2888	27.005063562888	0.002179425432
0	2890	27.00724298832	0.001458829231
0	2892	27.008701817551	0.02884146605
0	2903	27.037543283601	0.034800347684
0	2909	27.072343631285	0.085259559432
0	2914	27.157603190717	0.000201998251
0	2916	27.157805188968	0.118106610623
0	2925	27.275911799591	0.008283809104
0	2930	27.284195608695	0.037136357625
0	2935	27.32133196632	0.043987770384
0	2940	27.365319736704	0.070615028581
0	2945	27.435934765285	0.142042981472
0	2951	27.577977746757	0.007340111228
0	2956	27.585317857985	0.011697017565
0	2962	27.59701487555	0.000442553847
0	2964	27.597457429397	0.007117889057
0	2970	27.604575318454	0.029351060583
0	2978	27.633926379037	0.021179774243
0	2983	27.65510615328	0.008214446675
0	2988	27.663320599955	0.025673349564
0	2993	27.688993949519	0.044959608888
0	2998	27.733953558407	0.0154695675
0	3003	27.749423125907	0.036931827536
0	3008	27.786354953443	0.105623634341
0	3015	27.891978587784	0.008944298338
0	3020	27.900922886122	0.143012233079
0	3027	28.043935119201	0.05194776308
0	3033	28.095882882281	0.001831362104
0	3035	28.097714244385	0.005801681227
0	3040	28.103515925612	0.051544338627
0	3050	28.155060264239	0.02102334419
0	3055	28.176083608429	0.033266547461
0	3061	28.20935015589	0.189760816973
0	3066	28.399110972863	0.010666494913
0	3071	28.409777467776	0.022744370938
0	3076	28.432521838714	0.002479982479
0	3078	28.435001821193	0.122836253514
0	3087	28.557838074707	0.050235275211
0	3092	28.608073349918	0.121740250222
0	3098	28.72981360014	0.096426588688
0	3106	28.826240188828	0.034494534856
0	3111	28.860734723684	0.116193421774
0	3116	28.976928145458	0.031222032754
0	3121	29.008150178212	0.007001452277
0	3123	29.015151630489	0.260661129421
0	3133	29.27581275991	0.080589748993
0	3139	29.356402508903	0.143094483905
0	3144	29.499496992808	0.05264880283
0	3149	29.552145795638	0.056734839553
0	3154	29.608880635191	0.102184874395
0	3159	29.711065509586	0.00961003403
0	3164	29.720675543616	0.002585461227
0	3166	29.723261004843	0.177329091836
0	3175	29.900590096679	0.088117286266
0	3182	29.988707382945	0.012867311236
0	3187	30.001574694181	0.030422319743
0	3192	30.031997013924	0.118269572477
0	3197	30.150266586401	0.161252345211
0	3203	30.311518931612	0.048844262612
0	3210	30.360363194224	0.146475214309
0	3216	30.506838408533	0.060971873013
0	3221	30.567810281546	0.019070628705
0	3226	30.586880910251	0.046889010737
0	3231	30.633769920988	0.122876200854
0	3238	30.756646121842	0.009254787516
0	3243	30.765900909358	0.001099120969
0	3245	30.767000030327	0.018207756964
0	3254	30.785207787291	0.03494491761
0	3259	30.820152704901	0.007605838689
0	3264	30.82775854359	0.007865244846
0	3269	30.835623788436	0.002095273116
0	3271	30.837719061552	0.040766682515
0	3279	30.878485744067	0.099676461968
0	3285	30.978162206035	0.290431214594
0	3291	31.268593420629	0.182408958686
0	3298	31.451002379315	0.023421344346
0	3303	31.474423723661	0.169964810419
0	3312	31.64438853408	0.004946741499
0	3315	31.649335275579	0.015363481015
0	3323	31.664698756594	0.003999687613
0	3326	31.668698444207	0.031817160016
0	3334	31.700515604223	0.157748202358
0	3339	31.858263806581	0.008128894877
0	3344	31.866392701458	0.194494356784
0	3350	32.060887058242	0.001170204237
0	3352	32.062057262479	0.0721137346
0	3361	32.134170997079	0.01755843458
0	3366	32.151729431659	0.024482747224
0	3371	32.176212178883	0.050833458376
0	3378	32.227045637259	0.086977409191
0	3385	32.31402304645	0.054286302202
0	3390	32.368309348652	0.054300513407
0	3395	32.422609862059	0.030000934508
0	3401	32.452610796567	0.002619274276
0	3403	32.455230070843	0.020218300989
0	3411	32.475448371832	0.044925140028
0	3417	32.52037351186	0.036024399354
0	3423	32.556397911214	0.139000433151
0	3429	32.695398344365	0.013438349263
0	3434	32.708836693628	0.061117650593
0	3441	32.769954344221	0.014413203579
0	3446	32.7843675478	0.104843930221
0	3451	32.889211478021	0.012123374442
0	3456	32.901334852463	0.038069625467
0	3461	32.93940447793	0.00815095161
0	3466	32.94755542954	0.052661769901
0	3472	33.000217199441	0.023761735897
0	3477	33.023978935338	0.123275337656
0	3482	33.147254272994	0.205723349092
0	3489	33.352977622086	0.009684347837
0	3494	33.362661969923	0.177552263446
0	3500	33.540214233369	0.093352881729
0	3507	33.633567115098	0.001751674413
0	3509	33.635318789511	0.010531073848
0	3514	33.645849863359	0.001115806295
0	3516	33.646965669654	0.055000727455
0	3527	33.701966397109	0.03758689614
0	3532	33.739553293249	0.046073568226
0	3537	33.785626861475	0.00192405582
0	3539	33.787550917295	0.127644190754
0	3547	33.915195108049	0.029296928494
0	3552	33.944492036543	0.079961343979
0	3557	34.024453380522	0.072065466681
0	3563	34.096518847203	0.119159497294
0	3568	34.215678344497	0.014936116938
0	3573	34.230614461435	0.04036121175
0	3580	34.270975673185	0.039086314323
0	3585	34.310061987508	0.051169210946
0	3590	34.361231198454	0.0001281647
0	3592	34.361359363154	0.004567807841
0	3594	34.365927170995	0.026677334468
0	3605	34.392604505463	0.087616879254
0	3610	34.480221384717	0.028519725061
0	3615	34.508741109778	0.00830275097
0	3620	34.517043860748	0.054640871202
0	3625	34.57168473195	0.015106973132
0	3630	34.586791705082	0.003443712681
0	3632	34.590235417763	0.027765712612
0	3640	34.618001130375	0.02583309478
0	3645	34.643834225155	0.00800961182
0	3650	34.651843836975	0.020322723347
0	3655	34.672166560322	0.095702013672
0	3661	34.767868573994	0.010699441092
0	3666	34.778568015086	0.014950575716
0	3671	34.793518590802	0.009165562453
0	3676	34.802684153255	0.120715998701
0	3682	34.923400151956	0.179271866281
0	3690	35.102672018237	0.095281981001
0	3697	35.197953999238	0.009731693928
0	3702	35.207685693166	0.045819691771
0	3708	35.253505384937	0.149505416029
0	3714	35.403010800966	0.012542763027
0	3719	35.415553563993	0.112676821585
0	3725	35.528230385578	0.004990792422
0	3727	35.533221178	0.006092670861
0	3732	35.539313848861	0.048001422513
0	3740	35.587315271374	0.214048806203
0	3745	35.801364077577	0.07797084222
0	3750	35.879334919797	0.000246519104
0	3752	35.879581438901	0.065480643522
0	3760	35.945062082423	0.021220424824
0	3765	35.966282507247	0.013689724562
0	3770	35.979972231809	0.019537786403
0	3775	35.999510018212	0.052559409242
0	3780	36.052069427454	0.009933883819
0	3785	36.062003311273	0.126922688989
0	3792	36.188926000262	0.008999527974
0	3797	36.197925528236	0.02611085148
0	3802	36.224036379716	0.054326664502
0	3807	36.278363044218	0.000396514989
0	3809	36.278759559207	0.017658017811
0	3817	36.296417577018	0.032810029184
0	3822	36.329227606202	0.120733978277
0	3830	36.449961584479	0.048057320223
0	3835	36.498018904702	0.103593748945
0	3841	36.601612653647	0.008397914169
0	3843	36.610010567816	0.012927903363
0	3851	36.622938471179	0.047297148845
0	3856	36.670235620024	0.006971644706
0	3860	36.67720726473	0.117893551546
0	3868	36.795100816276	0.022871851417
0	3874	36.817972667693	0.024137541079
0	3879	36.842110208772	0.006699914995
0	3881	36.848810123767	0.047878271722
0	3889	36.896688395489	0.064517015669
0	3895	36.961205411158	0.08836148503
0	3902	37.049566896188	0.019118359841
0	3907	37.068685256029	0.067661730318
0	3913	37.136346986347	0.079712294316
0	3918	37.216059280663	0.097252961615
0	3924	37.313312242278	0.072539154489
0	3929	37.385851396767	0.021073865804
0	3934	37.406925262571	0.007902712227
0	3937	37.414827974798	0.033665217667
0	3945	37.448493192465	0.114077613973
0	3950	37.562570806438	0.004755749534
0	3952	37.567326555972	0.111592576916
0	3961	37.678919132888	0.061647313824
0	3966	37.740566446712	0.042032768984
0	3971	37.782599215696	0.036325288995
0	3976	37.818924504691	0.003389027084
0	3978	37.822313531775	0.035818406601
0	3987	37.858131938376	0.010755754149
0	3992	37.868887692525	0.042711458491
0	3997	37.911599151016	0.010968752407
0	4002	37.922567903423	0.020847735175
0	4007	37.943415638598	0.004269413301
0	4009	37.947685051899	0.002165702983
0	4011	37.949850754882	0.017619202359
0	4019	37.967469957241	0.045458577598
0	4027	38.012928534839	0.044523721985
0	4032	38.057452256824	0.065407682199
0	4039	38.122859939023	0.06423419345
0	4044	38.187094132473	0.033819800524
0	4049	38.220913932997	0.3367690404
0	4056	38.557682973397	0.040488656116
0	4061	38.598171629513	0.049144428239
0	4066	38.647316057752	0.038870780193
0	4071	38.686186837945	0.000782737542
0	4073	38.686969575487	0.001841186761
0	4075	38.688810762248	0.001700644073
0	4078	38.690511406321	0.022146932083
0	4090	38.712658338404	0.075713304779
0	4099	38.788371643183	0.028701278294
0	4105	38.817072921477	0.015134692367
0	4111	38.832207613844	0.033175856337
0	4116	38.865383470181	0.047030425099
0	4122	38.91241389528	0.058585297526
0	4127	38.970999192806	0.068530798682
0	4133	39.039529991488	0.000975209275
0	4135	39.040505200763	0.118013968022
0	4145	39.158519168785	0.018541419665
0	4150	39.17706058845	0.033485740854
0	4155	39.210546329304	0.162895119039
0	4164	39.373441448343	0.042229826644
0	4169	39.415671274987	0.011195470716
0	4174	39.426866745703	0.017416057813
0	4179	39.444282803516	0.13022164602
0	4184	39.574504449536	0.000173445518
0	4186	39.574677895054	0.013264510593
0	4191	39.587942405647	0.059576314019
0	4201	39.647518719666	0.036271584707
0	4206	39.683790304373	0.016974985841
0	4211	39.700765290214	0.085483337578
0	4216	39.786248627792	0.033337755813
0	4221	39.819586383605	0.0267852974
0	4226	39.846371681005	0.061128275474
0	4231	39.907499956479	0.016314906003
0	4236	39.923814862482	0.011257997253
0	4241	39.935072859735	0.053707589435
0	4246	39.98878044917	0.056068791764
0	4252	40.044849240934	0.02773666815
0	4257	40.072585909084	0.072912802482
0	4262	40.145498711566	0.034139100851
0	4267	40.179637812417	0.034666773513
0	4274	40.21430458593	0.045652552031
0	4279	40.259957137961	0.008881488536
0	4284	40.268838626497	0.087935506999
0	4289	40.356774133496	0.012421359329
0	4294	40.369195492825	0.017324785642
0	4299	40.386520278467	0.018043897444
0	4304	40.404564175911	0.092276489627
0	4310	40.496840665538	0.051849460797
0	4316	40.548690126335	0.124833278772
0	4321	40.673523405107	0.07640956786
0	4328	40.749932972967	0.009599057076
0	4333	40.759532030043	0.087546522263
0	4338	40.847078552306	0.071854881702
0	4343	40.918933434008	0.086784625128
0	4349	41.005718059136	0.00489949688
0	4351	41.010617556016	0.029428082943
0	4359	41.040045638959	0.020377948047
0	4364	41.060423587006	0.019692809922
0	4369	41.080116396928	0.011420954189
0	4374	41.091537351117	0.035199124279
0	4379	41.126736475396	0.014543969481
0	4384	41.141280444877	0.072627195488
0	4391	41.213907640365	0.02453701617
0	4397	41.238444656535	0.006798364571
0	4399	41.245243021106	0.04131580157
0	4407	41.286558822676	0.009556358849
0	4412	41.296115181525	0.047982733065
0	4418	41.34409791459	0.038008355085
0	4423	41.382106269675	0.090551729954
0	4429	41.472657999629	0.031620018725
0	4434	41.504278018354	0.065703696731
0	4441	41.569981715085	0.015441647872
0	4446	41.585423362957	0.034735793126
0	4453	41.620159156083	0.067514594549
0	4458	41.687673750632	0.003390363193
0	4460	41.691064113825	0.080924680166
0	4468	41.771988793991	0.033030196195
0	4473	41.805018990186	0.099241676309
0	4479	41.904260666495	0.026725156042
0	4484	41.930985822537	0.008045803329
0	4486	41.939031625866	0.028187969121
0	4494	41.967219594987	0.001224125524
0	4496	41.968443720511	0.032133243345
0	4504	42.000576963856	0.010888007678
0	4509	42.011464971534	0.076250714433
0	4514	42.087715685967	0.031160787637
0	4519	42.118876473604	0.057774901794
0	4524	42.176651375398	0.026279875972
0	4529	42.20293125137	0.057874634347
0	4534	42.260805885717	0.005025873572
0	4536	42.265831759289	0.224143614529
0	4545	42.489975373818	0.107464542562
0	4551	42.59743991638	0.08381146795
0	4557	42.68125138433	0.037184979305
0	4562	42.718436363635	0.141793956919
0	4568	42.860230320554	0.000414825743
0	4570	42.860645146297	0.031545716938
0	4578	42.892190863235	0.017481562489
0	4584	42.909672425724	0.059188687045
0	4590	42.968861112769	0.10210757807
0	4598	43.070968690839	0.155282934015
0	4604	43.226251624854	0.011594452192
0	4609	43.237846077046	0.003983213382
0	4611	43.241829290428	0.017264259369
0	4619	43.259093549797	0.072840703519
0	4626	43.331934253316	0.096937206923
0	4631	43.428871460239	0.010304734465
0	4636	43.439176194704	0.118024003105
0	4641	43.557200197809	0.152758383161
0	4646	43.70995858097	0.00357961538
0	4648	43.71353819635	0.187124339638
0	4658	43.900662535988	0.036970929374
0	4663	43.937633465362	0.015808277224
0	4668	43.953441742586	0.055633947014
0	4673	44.0090756896	0.057465528281
0	4678	44.066541217881	0.057577809313
0	4684	44.124119027194	0.098727828665
0	4689	44.222846855859	0.054796740269
0	4696	44.277643596128	0.030690315352
0	4701	44.30833391148	0.03019985849
0	4706	44.33853376997	0.103404822166
0	4712	44.441938592136	0.003830295404
0	4714	44.44576888754	0.032856692402
0	4722	44.478625579942	0.002524881157
0	4724	44.481150461099	0.106825464774
0	4732	44.587975925873	0.016901147185
0	4737	44.604877073058	0.02480043757
0	4742	44.629677510628	0.216059072721
0	4748	44.845736583349	0.006858260195
0	4750	44.852594843544	0.113589272201
0	4758	44.966184115745	0.01801564459
0	4764	44.984199760335	0.08439181791
0	4771	45.068591578245	0.012037974493
0	4776	45.080629552738	0.006942798429
0	4778	45.087572351167	0.002880355164
0	4783	45.090452706331	0.280399390621
0	4794	45.370852096952	0.022584734464
0	4799	45.393436831416	0.044585944433
0	4805	45.438022775849	0.030036736799
0	4810	45.468059512648	0.091724899631
0	4816	45.559784412279	0.097309970691
0	4822	45.65709438297	0.02913085106
0	4827	45.68622523403	0.039542170155
0	4832	45.725767404185	0.014237318406
0	4837	45.740004722591	0.003017614893
0	4840	45.743022337484	0.117813151612
0	4852	45.860835489096	0.02199269753
0	4858	45.882828186626	0.027755597976
0	4863	45.910583784602	0.044929156841
0	4869	45.955512941443	0.012190527779
0	4874	45.967703469222	0.13558856192
0	4880	46.103292031142	0.059187125859
0	4886	46.162479157001	0.029905274882
0	4891	46.192384431883	0.000771264229
0	4893	46.193155696112	0.0313720914
0	4901	46.224527787512	0.111918950869
0	4906	46.336446738381	0.018574247366
0	4911	46.355020985747	0.013821662857
0	4916	46.368842648604	0.041991850697
0	4921	46.410834499301	0.036231856074
0	4926	46.447066355375	0.013314217894
0	4931	46.460380573269	0.053106070635
0	4936	46.513486643904	0.042960915635
0	4941	46.556447559539	0.009026845376
0	4947	46.565474404915	0.051843528941
0	4953	46.617317933856	0.068332778777
0	4958	46.685650712633	0.028809833929
0	4963	46.714460546562	0.110894853584
0	4969	46.825355400146	0.008241288047
0	4974	46.833596688193	0.079000109341
0	4980	46.912596797534	0.204078179861
0	4987	47.116674977395	0.001790351003
0	4989	47.118465328398	0.033102156047
0	4998	47.151567484445	0.068228227566
0	5003	47.219795712011	0.053114723832
0	5008	47.272910435843	0.053024480214
0	5014	47.325934916057	0.022514491319
0	5020	47.348449407376	0.031730402723
0	5025	47.380179810099	0.009706245796
0	5030	47.389886055895	0.076564402374
0	5035	47.466450458269	0.001707277878
0	5037	47.468157736147	0.019122178867
0	5045	47.487279915014	0.01423709703
0	5050	47.501517012044	0.026052015752
0	5055	47.527569027796	0.013281253403
0	5060	47.540850281199	0.052193627851
0	5065	47.59304390905	0.0190553509
0	5070	47.61209925995	0.067385963769
0	5077	47.679485223719	0.013808698732
0	5082	47.693293922451	0.0749195256
0	5088	47.768213448051	0.003756015777
0	5090	47.771969463828	0.069425159335
0	5099	47.841394623163	0.139767302092
0	5106	47.981161925255	0.062847519478
0	5112	48.044009444733	0.011072854569
0	5117	48.055082299302	0.036708074179
0	5122	48.091790373481	0.064350603231
0	5127	48.156140976712	0.02438527131
0	5132	48.180526248022	0.119307222707
0	5138	48.299833470729	0.041319134607
0	5144	48.341152605336	0.004135863897
0	5146	48.345288469233	0.066078786772
0	5155	48.411367256005	0.126789298967
0	5161	48.538156554972	0.047649371007
0	5166	48.585805925979	0.107341207773
0	5171	48.693147133752	0.014277845943
0	5176	48.707424979695	0.002073197523
0	5178	48.709498177218	0.001361852506
0	5180	48.710860029724	0.014333381979
0	5188	48.725193411703	0.074008188127
0	5196	48.79920159983	0.03321880793
0	5201	48.83242040776	0.057595309117
0	5208	48.890015716877	0.015818203473
0	5213	48.90583392035	0.000820563232
0	5215	48.906654483582	0.0144488698
0	5220	48.921103353382	0.051208810143
0	5228	48.972312163525	0.057123922371
0	5234	49.029436085896	0.012744928883
0	5239	49.042181014779	0.080358122561
0	5247	49.12253913734	0.029115340721
0	5252	49.151654478061	0.254636213957
0	5261	49.406290692018	0.126334650045
0	5267	49.532625342063	0.018648928334
0	5272	49.551274270397	0.001317779189
0	5274	49.552592049586	0.075005647477
0	5282	49.627597697063	0.04398233717
0	5288	49.671580034233	0.022056383586
0	5293	49.693636417819	0.055053538303
0	5298	49.748689956122	0.027016366192
0	5303	49.775706322314	0.007378008018
0	5305	49.783084330332	0.007078537575
0	5310	49.790162867907	0.063784763371
0	5318	49.853947631278	0.027068042333
0	5323	49.881015673611	0.027259029285
0	5328	49.908274702896	0.054683569582
0	5333	49.962958272478	0.018346799815
0	5338	49.981305072293	0.025542872797
0	5343	50.00684794509	0.022437902966
0	5348	50.029285848056	0.005070703704
0	5350	50.03435655176	0.009661213054
0	5356	50.044017764814	0.091023408307
0	5366	50.135041173121	0.044681677592
0	5372	50.179722850713	0.090038847005
0	5377	50.269761697718	0.018288651333
0	5383	50.288050349051	0.000274430055
0	5385	50.288324779106	0.06055988933
0	5393	50.348884668436	0.013120403038
0	5398	50.362005071474	0.09169289286
0	5404	50.453697964334	0.021916885332
0	5409	50.475614849666	0.09064029793
0	5414	50.566255147596	0.035994903639
0	5419	50.602250051235	0.028890667122
0	5424	50.631140718357	0.026823806565
0	5429	50.657964524922	0.170846936188
0	5434	50.82881146111	0.08665492481
0	5440	50.91546638592	0.169989277841
0	5446	51.085455663761	0.042758252076
0	5452	51.128213915837	0.101917489931
0	5460	51.230131405768	0.033598426337
0	5465	51.263729832105	0.001597885447
0	5467	51.265327717552	0.015613973512
0	5475	51.280941691064	0.050943843003
0	5480	51.331885534067	0.160635095885
0	5486	51.492520629952	0.016181108236
0	5491	51.508701738188	0.031288308988
0	5497	51.539990047176	0.003163203469
0	5499	51.543153250645	0.010231828987
0	5504	51.553385079632	0.018729833876
0	5512	51.572114913508	0.013175352327
0	5517	51.585290265835	0.011885508957
0	5522	51.597175774792	0.030102308119
0	5527	51.627278082911	0.142546448253
0	5533	51.769824531164	0.038004725687
0	5538	51.807829256851	0.019663329362
0	5544	51.827492586213	0.077574057507
0	5552	51.90506664372	0.021596875437
0	5557	51.926663519157	0.016772155181
0	5562	51.943435674338	0.065434601013
0	5568	52.008870275351	0.013948489249
0	5573	52.0228187646	0.168409659521
0	5579	52.191228424121	0.052429929849
0	5585	52.24365835397	0.016565554448
0	5590	52.260223908418	0.00566609861
0	5592	52.265890007028	0.021131361355
0	5600	52.287021368383	0.021599312625
0	5605	52.308620681008	0.007008410137
0	5607	52.315629091145	0.094892155577
0	5616	52.410521246722	0.026303204451
0	5622	52.436824451173	0.004164916461
0	5624	52.440989367634	0.023565800769
0	5632	52.464555168403	0.13977590797
0	5640	52.604331076373	0.108507696375
0	5646	52.712838772748	0.024034395589
0	5651	52.736873168337	0.035131670055
0	5656	52.772004838392	0.116965562077
0	5661	52.888970400469	0.01716778848
0	5668	52.906138188949	0.020699791515
0	5673	52.926837980464	0.04142275753
0	5678	52.968260737994	0.025288663885
0	5683	52.993549401879	0.049940365315
0	5689	53.043489767194	0.010431926278
0	5694	53.053921693472	0.012502300679
0	5699	53.066423994151	0.018313699882
0	5704	53.084737694033	0.034977837416
0	5711	53.119715531449	0.001978748739
0	5713	53.121694280188	0.046131736235
0	5723	53.167826016423	0.028800283755
0	5728	53.196626300178	0.018417858854
0	5734	53.215044159032	0.050607168672
0	5739	53.265651327704	0.027002205758
0	5745	53.292653533462	0.024629356835
0	5750	53.317282890297	0.069223159795
0	5756	53.386506050092	0.05893307659
0	5762	53.445439126682	0.013548774497
0	5767	53.458987901179	0.057192722949
0	5772	53.516180624128	0.064255987419
0	5777	53.580436611547	0.074137191764
0	5784	53.654573803311	0.05502727604
0	5789	53.709601079351	0.050877592417
0	5794	53.760478671768	0.032147843405
0	5799	53.792626515173	0.00042804168
0	5801	53.793054556853	0.009863966871
0	5806	53.802918523724	0.00766419403
0	5811	53.810582717754	0.016855784154
0	5819	53.827438501908	0.044816939905
0	5824	53.872255441813	0.027280774635
0	5829	53.899536216448	0.007929898693
0	5831	53.907466115141	0.012916891224
0	5839	53.920383006365	0.042782647331
0	5845	53.963165653696	0.036517735414
0	5850	53.99968338911	0.037111910476
0	5855	54.036795299586	0.010249556757
0	5860	54.047044856343	0.095093849655
0	5865	54.142138705998	0.007620676102
0	5867	54.1497593821	0.000279567533
0	5872	54.150038949633	0.008388057401
0	5877	54.158427007034	0.009166400012
0	5882	54.167593407046	0.012122990863
0	5887	54.179716397909	0.082637773081
0	5896	54.26235417099	0.031022103889
0	5902	54.293376274879	0.024565684375
0	5907	54.317941959254	0.069132994499
0	5914	54.387074953753	0.090874821047
0	5919	54.4779497748	0.004048862707
0	5921	54.481998637507	0.032733211951
0	5929	54.514731849458	0.05029045266
0	5935	54.565022302118	0.170478697164
0	5941	54.735500999282	0.011770474493
0	5946	54.747271473775	0.050295169511
0	5952	54.797566643286	0.005820840009
0	5954	54.803387483295	0.160451873254
0	5964	54.963839356549	0.008696353788
0	5969	54.972535710337	0.123012763015
0	5975	55.095548473352	0.030462782842
0	5980	55.126011256194	0.033858200492
0	5986	55.159869456686	0.03222285716
0	5991	55.192092313846	0.052663192073
0	5997	55.244755505919	0.026190426298
0	6002	55.270945932217	0.041637665162
0	6007	55.312583597379	0.032565525749
0	6013	55.345149123128	0.153129386319
0	6020	55.498278509447	0.012758651006
0	6025	55.511037160453	0.015791595652
0	6030	55.526828756105	0.03605364576
0	6035	55.562882401865	0.096440479107
0	6041	55.659322880972	0.036475866634
0	6046	55.695798747606	0.084879018469
0	6051	55.780677766075	0.065890872258
0	6057	55.846568638333	0.116455339496
0	6063	55.963023977829	0.046785917593
0	6068	56.009809895422	0.110370032224
0	6073	56.120179927646	0.018107910809
0	6078	56.138287838455	0.078621287268
0	6083	56.216909125723	0.015699002148
0	6088	56.232608127871	0.081280915678
0	6093	56.313889043549	0.02420364084
0	6098	56.338092684389	0.102389111826
0	6103	56.440481796215	0.012528160787
0	6108	56.453009957002	0.52329444566
0	6115	56.976304402662	0.067483183484
0	6120	57.043787586146	0.037285628535
0	6125	57.081073214681	0.042068794188
0	6130	57.123142008869	0.156258927301
0	6136	57.27940093617	0.020078109232
0	6141	57.299479045402	0.020032823481
0	6147	57.319511868883	0.044411671894
0	6152	57.363923540777	0.001172745776
0	6154	57.365096286553	0.068116591266
0	6162	57.433212877819	0.119370474926
0	6167	57.552583352745	0.130513094041
0	6173	57.683096446786	0.183947755524
0	6180	57.86704420231	0.032409897936
0	6185	57.899454100246	0.022512334341
0	6190	57.921966434587	0.007826303672
0	6195	57.929792738259	0.009348204752
0	6200	57.939140943011	0.060525322247
0	6205	57.999666265258	0.00101943323
0	6207	58.000685698488	0.005708074866
0	6209	58.006393773354	0.012978715549
0	6217	58.019372488903	0.090742474372
0	6225	58.110114963275	0.079398635613
0	6231	58.189513598888	0.032482603767
0	6236	58.221996202655	0.018484802065
0	6241	58.24048100472	0.024216550536
0	6247	58.264697555256	0.00326486246
0	6249	58.267962417716	0.046368671594
0	6257	58.31433108931	0.028874941067
0	6262	58.343206030377	0.050281790422
0	6267	58.393487820799	0.0245820265
0	6273	58.418069847299	0.017090280966
0	6278	58.435160128265	0.00839885876
0	6284	58.443558987025	0.068679931894
0	6291	58.512238918919	0.110394894295
0	6298	58.622633813214	0.063495824503
0	6303	58.686129637717	0.078333634263
0	6308	58.76446327198	0.001934422052
0	6310	58.766397694032	0.022684698078
0	6318	58.78908239211	0.213971538047
0	6324	59.003053930157	0.052524758901
0	6329	59.055578689058	0.04713744074
0	6334	59.102716129798	0.030338784003
0	6339	59.133054913801	0.022351722774
0	6344	59.155406636575	0.007142841794
0	6349	59.162549478369	0.00409908126
0	6351	59.166648559629	0.178704072126
0	6362	59.345352631755	0.046442487124
0	6367	59.391795118879	0.082519884204
0	6372	59.474315003083	0.059005290404
0	6377	59.533320293487	0.034815100431
0	6382	59.568135393918	0.020335750952
0	6387	59.58847114487	0.006193725677
0	6389	59.594664870547	0.050330715141
0	6397	59.644995585688	0.051719648038
0	6403	59.696715233726	0.046797432584
0	6408	59.74351266631	0.079494791252
0	6413	59.823007457562	0.115523144246
0	6419	59.938530601808	0.104821122755
0	6426	60.043351724563	0.045365415489
0	6431	60.088717140052	0.043243948547
0	6436	60.131961088599	0.023900427209
0	6441	60.155861515808	0.047376604909
0	6447	60.203238120717	0.005188406819
0	6449	60.208426527536	0.012341978916
0	6457	60.220768506452	0.143324509525
0	6465	60.364093015977	0.052350860903
0	6470	60.41644387688	0.055755861194
0	6476	60.472199738074	0.02410116717
0	6481	60.496300905244	0.058383195564
0	6486	60.554684100808	0.027542068729
0	6491	60.582226169537	0.007129418714
0	6493	60.589355588251	0.024472107117
0	6502	60.613827695368	0.070805280933
0	6508	60.684632976301	0.07230269265
0	6513	60.756935668951	0.000111101127
0	6515	60.757046770078	0.086395711614
0	6526	60.843442481692	0.044373625853
0	6532	60.887816107545	0.285308420465
0	6538	61.17312452801	0.084655203062
0	6543	61.257779731072	0.196696417282
0	6550	61.454476148354	0.012889121798
0	6555	61.467365270152	0.00477473609
0	6558	61.472140006242	0.007234433025
0	6563	61.479374439267	0.067946098633
0	6571	61.5473205379	0.079600595647
0	6578	61.626921133547	0.000491544277
0	6580	61.627412677824	0.048042169881
0	6589	61.675454847705	0.005177116328
0	6591	61.680631964033	0.029904243557
0	6599	61.71053620759	0.075987852502
0	6604	61.786524060092	0.023882180493
0	6610	61.810406240585	0.077077512579
0	6616	61.887483753164	0.088378613209
0	6622	61.975862366373	0.028534766954
0	6627	62.004397133327	0.035191955297
0	6632	62.039589088624	0.019297791771
0	6637	62.058886880395	0.058968748559
0	6642	62.117855628954	0.104973711315
0	6647	62.222829340269	0.181269454988
0	6653	62.404098795257	0.026308735116
0	6658	62.430407530373	0.307910583903
0	6669	62.738318114276	0.024258358633
0	6674	62.762576472909	0.001916722331
0	6676	62.76449319524	0.030182829817
0	6684	62.794676025057	0.108017656463
0	6690	62.90269368152	0.062018087452
0	6695	62.964711768972	0.032159128317
0	6700	62.996870897289	0.019058691772
0	6705	63.015929589061	0.097932718627
0	6711	63.113862307688	0.011647588152
0	6716	63.12550989584	0.307746044078
0	6723	63.433255939918	0.089999747236
0	6728	63.523255687154	0.038044921414
0	6733	63.561300608568	0.003198569143
0	6735	63.564499177711	0.001576833984
0	6738	63.566076011695	0.079860563233
0	6749	63.645936574928	0.006071108333
0	6751	63.652007683261	0.107191436606
0	6759	63.759199119867	0.100171281529
0	6764	63.859370401396	0.129257738935
0	6769	63.988628140331	0.017466468566
0	6774	64.006094608897	0.079802254958
0	6779	64.085896863855	0.009852401014
0	6784	64.095749264869	0.006580447058
0	6787	64.102329711927	0.062569113489
0	6795	64.164898825416	0.047700086441
0	6801	64.212598911857	0.020541748584
0	6806	64.233140660441	0.213333903757
0	6812	64.446474564198	0.114222697139
0	6819	64.560697261337	0.152072533486
0	6825	64.712769794823	0.063796137386
0	6830	64.776565932209	0.096172728762
0	6836	64.872738660971	0.013029633343
0	6841	64.885768294314	0.103687382606
0	6846	64.98945567692	0.019594045692
0	6851	65.009049722612	0.055326870977
0	6856	65.064376593589	0.043168260524
0	6861	65.107544854113	0.181781629978
0	6867	65.289326484091	0.033791608001
0	6872	65.323118092092	0.060852597861
0	6877	65.383970689953	0.182552576675
0	6885	65.566523266628	0.049117239828
0	6891	65.615640506456	0.217429488719
0	6899	65.833069995175	0.003087705541
0	6901	65.836157700716	0.001002095896
0	6903	65.837159796612	0.009458575097
0	6908	65.846618371709	0.01411682126
0	6916	65.860735192969	0.030492665965
0	6924	65.891227858934	0.065204072899
0	6929	65.956431931833	0.001398536078
0	6931	65.957830467911	0.026913177629
0	6939	65.98474364554	0.073332526947
0	6945	66.058076172487	0.032365704426
0	6951	66.090441876913	0.039174215358
0	6957	66.129616092271	0.015331597741
0	6962	66.144947690012	0.07407340684
0	6967	66.219021096852	0.00448045281
0	6969	66.223501549662	0.035987464688
0	6977	66.25948901435	0.040663123497
0	6982	66.300152137847	0.092745131657
0	6988	66.392897269504	0.033065416133
0	6993	66.425962685637	0.07992602054
0	6999	66.505888706177	0.0753579321
0	7004	66.581246638277	0.130405889796
0	7011	66.711652528073	0.119329774614
0	7016	66.830982302687	0.147540979316
0	7023	66.978523282003	0.100215081718
0	7029	67.078738363721	0.166009089218
0	7035	67.244747452939	0.00968458154
0	7040	67.254432034479	0.052708308801
0	7045	67.30714034328	0.036164211738
0	7050	67.343304555018	0.013200672023
0	7055	67.356505227041	0.172575498615
0	7060	67.529080725656	0.006554144649
0	7062	67.535634870305	0.034925379365
0	7071	67.57056024967	0.166848747147
0	7079	67.737408996817	0.009102289713
0	7086	67.74651128653	0.039780208412
0	7092	67.786291494942	0.038485848085
0	7097	67.824777343027	0.15795925959
0	7102	67.982736602617	0.206982451401
0	7108	68.189719054018	0.038072295822
0	7113	68.22779134984	0.033669042861
0	7118	68.261460392701	0.0008048594
0	7120	68.262265252101	0.082244902199
0	7128	68.3445101543	0.004502780391
0	7130	68.349012934691	0.081440304839
0	7139	68.43045323953	0.00424151664
0	7141	68.43469475617	0.033301298967
0	7149	68.467996055137	0.010808876858
0	7154	68.478804931995	0.006075110945
0	7156	68.48488004294	0.0087814794
0	7164	68.49366152234	0.090263764749
0	7169	68.583925287089	0.062317739322
0	7174	68.646243026411	0.007505889392
0	7179	68.653748915803	0.111053394172
0	7184	68.764802309975	0.004339394642
0	7186	68.769141704617	0.011451044754
0	7194	68.780592749371	0.090616057804
0	7199	68.871208807175	0.045008051089
0	7204	68.916216858264	0.022964804095
0	7209	68.939181662359	0.05106980445
0	7214	68.990251466809	0.064361124049
0	7219	69.054612590858	0.02057563314
0	7224	69.075188223998	0.034619012699
0	7230	69.109807236697	0.001406477056
0	7232	69.111213713753	0.053686978821
0	7240	69.164900692574	0.073507861624
0	7245	69.238408554198	0.008717629134
0	7250	69.247126183332	0.057253950689
0	7255	69.304380134021	0.013709779834
0	7260	69.318089913855	0.120076406495
0	7265	69.43816632035	0.054595457294
0	7270	69.492761777644	0.032325217151
0	7275	69.525086994795	0.045304568147
0	7280	69.570391562942	0.040849672745
0	7285	69.611241235687	0.005873657467
0	7287	69.617114893154	0.086356394389
0	7297	69.703471287543	0.083740277934
0	7304	69.787211565477	0.053307800017
0	7309	69.840519365494	0.021573425879
0	7314	69.862092791373	0.033653392953
0	7321	69.895746184326	0.045051121036
0	7327	69.940797305362	0.030735791816
0	7332	69.971533097178	0.115850050314
0	7337	70.087383147492	0.059417420161
0	7343	70.146800567653	0.183469872268
0	7350	70.330270439921	0.222741826605
0	7356	70.553012266526	0.095193982263
0	7361	70.648206248789	0.022112167886
0	7366	70.670318416675	0.020406200653
0	7371	70.690724617328	0.114560562542
0	7377	70.80528517987	0.014397845095
0	7383	70.819683024965	0.012544010969
0	7388	70.832227035934	0.202265828115
0	7393	71.034492864049	0.028742793131
0	7398	71.06323565718	0.084167404211
0	7403	71.147403061391	0.003870277308
0	7405	71.151273338699	0.008428936756
0	7410	71.159702275455	0.057680047807
0	7418	71.217382323262	0.061510297606
0	7423	71.278892620868	0.040167161449
0	7428	71.319059782317	0.024529275722
0	7433	71.343589058039	0.094663252991
0	7439	71.43825231103	0.095650283672
0	7444	71.533902594702	0.020776799086
0	7451	71.554679393788	0.012194217306
0	7456	71.566873611094	0.037453948627
0	7462	71.604327559721	0.006637772458
0	7464	71.610965332179	0.000101420093
0	7466	71.611066752272	0.02477578607
0	7477	71.635842538342	0.028144622508
0	7482	71.66398716085	0.004188347697
0	7484	71.668175508547	0.002946787402
0	7486	71.671122295949	0.126713322285
0	7497	71.797835618234	0.016251918736
0	7502	71.81408753697	0.051565070723
0	7507	71.865652607693	0.015034463568
0	7512	71.880687071261	0.01009402758
0	7517	71.890781098841	0.031688935245
0	7523	71.922470034086	0.031006727151
0	7528	71.953476761237	0.038081559435
0	7533	71.991558320672	0.018679820612
0	7538	72.010238141284	0.035744977646
0	7543	72.04598311893	0.010777132331
0	7548	72.056760251261	0.05212627682
0	7553	72.108886528081	0.026441426684
0	7559	72.135327954765	0.020830796292
0	7564	72.156158751057	0.011290870809
0	7569	72.167449621866	0.061132141076
0	7575	72.228581762942	0.010225232401
0	7580	72.238806995343	0.192661279902
0	7587	72.431468275245	0.037450313503
0	7592	72.468918588748	0.028828182916
0	7597	72.497746771664	0.006593706717
0	7599	72.504340478381	0.165362721597
0	7609	72.669703199978	0.089805124321
0	7614	72.759508324299	0.010733245743
0	7619	72.770241570042	0.041593508615
0	7625	72.811835078657	0.032590007599
0	7631	72.844425086256	0.080520323755
0	7637	72.924945410011	0.045673931002
0	7642	72.970619341013	0.124183872022
0	7648	73.094803213035	0.011057320747
0	7653	73.105860533782	0.092838909115
0	7658	73.198699442897	0.014377097293
0	7663	73.21307654019	0.07317809689
0	7669	73.28625463708	0.020977377259
0	7675	73.307232014339	0.036978827825
0	7680	73.344210842164	0.043188087417
0	7685	73.387398929581	0.080787648873
0	7690	73.468186578454	0.067782613483
0	7695	73.535969191937	0.018450919536
0	7700	73.554420111473	0.063300206645
0	7706	73.617720318118	0.059011016238
0	7711	73.676731334356	0.040099376684
0	7716	73.71683071104	0.051550601331
0	7721	73.768381312371	0.028526606077
0	7726	73.796907918448	0.052271680284
0	7731	73.849179598732	0.055746322155
0	7737	73.904925920887	0.059814685157
0	7742	73.964740606044	0.036493573124
0	7747	74.001234179168	0.001407198546
0	7749	74.002641377714	0.036326013232
0	7757	74.038967390946	0.00418906373
0	7759	74.043156454676	0.071909697631
0	7769	74.115066152307	0.042620374555
0	7774	74.157686526862	0.046001882902
0	7779	74.203688409764	0.07044611026
0	7786	74.274134520024	0.032787988298
0	7792	74.306922508322	0.00965474478
0	7797	74.316577253102	0.054593138895
0	7802	74.371170391997	0.017283884397
0	7807	74.388454276394	0.006079789971
0	7809	74.394534066365	0.044651163692
0	7818	74.439185230057	0.100906137198
0	7824	74.540091367255	0.039580230823
0	7829	74.579671598078	0.003991897181
0	7831	74.583663495259	0.143762175399
0	7840	74.727425670658	0.029206264336
0	7845	74.756631934994	0.035842101448
0	7850	74.792474036442	0.050192727152
0	7856	74.842666763594	0.012074963138
0	7861	74.854741726732	0.055081894431
0	7869	74.909823621163	0.032793445036
0	7875	74.942617066199	0.054151606681
0	7882	74.99676867288	0.041558987784
0	7888	75.038327660664	0.080085604918
0	7894	75.118413265582	0.012392480554
0	7899	75.130805746136	0.022912799286
0	7904	75.153718545422	0.035766530301
0	7909	75.189485075723	0.000164237959
0	7911	75.189649313682	0.008419999216
0	7913	75.198069312898	0.048225059555
0	7924	75.246294372453	0.054339935579
0	7929	75.300634308032	0.075853170253
0	7935	75.376487478285	0.015524699207
0	7940	75.392012177492	0.065995088763
0	7945	75.458007266255	0.011873816687
0	7950	75.469881082942	0.00367342456
0	7952	75.473554507502	0.11897250738
0	7960	75.592527014882	0.043253112166
0	7965	75.635780127048	0.022098735898
0	7972	75.657878862946	0.028691680431
0	7977	75.686570543377	0.060459773709
0	7983	75.747030317086	0.133141310239
0	7990	75.880171627325	0.142856941472
0	7996	76.023028568797	0.048526870884
0	8001	76.071555439681	0.078474431915
0	8007	76.150029871596	0.029258658228
0	8012	76.179288529824	0.001618480462
0	8014	76.180907010286	0.007007181955
0	8019	76.187914192241	0.034248385544
0	8029	76.222162577785	0.064656712625
0	8034	76.28681929041	0.126247028598
0	8039	76.413066319008	0.062858227694
0	8044	76.475924546702	0.109482972211
0	8050	76.585407518913	0.144873612412
0	8056	76.730281131325	0.072966314925
0	8062	76.80324744625	0.079292978075
0	8067	76.882540424325	0.04236356215
0	8072	76.924903986475	0.027380747503
0	8077	76.952284733978	0.015225331213
0	8082	76.967510065191	0.019860662947
0	8087	76.987370728138	0.10240497108
0	8093	77.089775699218	0.038455869374
0	8098	77.128231568592	0.003085160655
0	8100	77.131316729247	0.05590319299
0	8110	77.187219922237	0.069458907674
0	8115	77.256678829911	0.021518450484
0	8120	77.278197280395	0.012113643991
0	8125	77.290310924386	0.069150970982
0	8130	77.359461895368	0.077772653939
0	8136	77.437234549307	0.019140461632
0	8141	77.456375010939	0.099246658058
0	8147	77.555621668997	0.038187151537
0	8152	77.593808820534	0.030637982005
0	8157	77.624446802539	0.00501432902
0	8159	77.629461131559	0.050180625449
0	8167	77.679641757008	0.068735545051
0	8173	77.748377302059	0.042344227242
0	8178	77.790721529301	0.007403260586
0	8180	77.798124789887	0.123174264771
0	8189	77.921299054658	0.034097633709
0	8194	77.955396688367	0.011316629889
0	8200	77.966713318256	0.014052739316
0	8205	77.980766057572	0.009725308574
0	8210	77.990491366146	0.026073632953
0	8215	78.016564999099	0.00182147563
0	8217	78.018386474729	0.001928190033
0	8219	78.020314664762	0.034941010367
0	8230	78.055255675129	0.02426566424
0	8235	78.079521339369	0.034929404216
0	8240	78.114450743585	0.028077217913
0	8246	78.142527961498	0.013544302256
0	8251	78.156072263754	0.010179708406
0	8256	78.16625197216	0.055614546859
0	8261	78.221866519019	0.031490030947
0	8266	78.253356549966	0.01097220674
0	8271	78.264328756706	0.094203456696
0	8277	78.358532213402	0.081754265129
0	8284	78.440286478531	0.234232823489
0	8294	78.67451930202	0.00979924214
0	8299	78.68431854416	0.004939339252
0	8301	78.689257883412	0.104896572488
0	8309	78.7941544559	0.019939839955
0	8314	78.814094295855	0.052736485119
0	8319	78.866830780974	0.061703489652
0	8324	78.928534270626	0.108566277591
0	8330	79.037100548217	0.063522878485
0	8336	79.100623426702	0.068828016778
0	8342	79.16945144348	0.085776428493
0	8348	79.255227871973	0.025224499446
0	8353	79.280452371419	0.01541123358
0	8358	79.295863604999	0.054616025159
0	8364	79.350479630158	0.015594881246
0	8370	79.366074511404	0.056728187672
0	8375	79.422802699076	0.095627048584
0	8380	79.51842974766	0.017758149803
0	8385	79.536187897463	0.090721608985
0	8391	79.626909506448	0.076753264691
0	8397	79.703662771139	0.03291330864
0	8403	79.736576079779	0.043498157809
0	8409	79.780074237588	0.16565880889
0	8415	79.945733046478	0.173389694749
0	8422	80.119122741227	0.009129181146
0	8427	80.128251922373	0.01126824084
0	8432	80.139520163213	0.003560797565
0	8434	80.143080960778	0.054026952504
0	8443	80.197107913282	0.085674932009
0	8448	80.282782845291	0.034440020914
0	8453	80.317222866205	0.071916808536
0	8458	80.389139674741	0.005293700172
0	8460	80.394433374913	0.005304091117
0	8465	80.39973746603	0.049308668451
0	8473	80.449046134481	0.035705131684
0	8478	80.484751266165	0.090969847758
0	8483	80.575721113923	0.111060392252
0	8489	80.686781506175	0.025423529098
0	8494	80.712205035273	0.000708143786
0	8496	80.712913179059	0.07321145808
0	8504	80.786124637139	0.019409332949
0	8509	80.805533970088	0.036505206446
0	8514	80.842039176534	0.206004937395
0	8522	81.048044113929	0.065566339658
0	8528	81.113610453587	0.114212416389
0	8535	81.227822869976	0.032820121708
0	8540	81.260642991684	0.150061174461
0	8545	81.410704166145	0.03439834071
0	8550	81.445102506855	0.074776110045
0	8555	81.5198786169	0.082997386081
0	8561	81.602876002981	0.00050158435
0	8563	81.603377587331	0.110528248845
0	8572	81.713905836176	0.029869282027
0	8577	81.743775118203	0.015435341277
0	8583	81.75921045948	0.01250455966
0	8588	81.77171501914	0.025218171182
0	8593	81.796933190322	0.089084197958
0	8600	81.88601738828	0.254368238131
0	8607	82.140385626411	0.051797664889
0	8612	82.1921832913	0.025597072829
0	8618	82.217780364129	0.080734269047
0	8623	82.298514633176	0.093944096477
0	8629	82.392458729653	0.011997608557
0	8635	82.40445633821	0.02024997694
0	8641	82.42470631515	0.015389927445
0	8646	82.440096242595	0.112614229452
0	8651	82.552710472047	0.095301312372
0	8656	82.648011784419	0.033341707506
0	8661	82.681353491925	0.010986815733
0	8666	82.692340307658	0.009649080485
0	8671	82.701989388143	0.000841445146
0	8673	82.702830833289	0.00858445888
0	8678	82.711415292169	0.036728167797
0	8686	82.748143459966	0.051047736497
0	8691	82.799191196463	0.01434573088
0	8696	82.813536927343	0.112791380466
0	8701	82.926328307809	0.022440108471
0	8706	82.94876841628	0.045587967382
0	8711	82.994356383662	0.005101570558
0	8713	82.99945795422	0.155990002572
0	8722	83.155447956792	0.027019314763
0	8727	83.182467271555	0.171644217126
0	8732	83.354111488681	0.051726338168
0	8739	83.405837826849	0.110219090274
0	8746	83.516056917123	0.007729163651
0	8751	83.523786080774	0.222946408266
0	8758	83.74673248904	0.002123877296
0	8760	83.748856366336	0.031802957109
0	8768	83.780659323445	0.017355569633
0	8773	83.798014893078	0.00407549618
0	8775	83.802090389258	0.022135694454
0	8783	83.824226083712	0.010685444618
0	8788	83.83491152833	0.012912499138
0	8793	83.847824027468	0.061160698823
0	8798	83.908984726291	0.153183868662
0	8804	84.062168594953	0.025763316501
0	8809	84.087931911454	0.043577489148
0	8815	84.131509400602	0.021932568045
0	8820	84.153441968647	0.126123446567
0	8825	84.279565415214	0.128519459019
0	8832	84.408084874233	0.062465742066
0	8837	84.470550616299	0.081486779118
0	8842	84.552037395417	0.042112613581
0	8848	84.594150008998	0.010500444763
0	8853	84.604650453761	0.077273168366
0	8858	84.681923622127	0.049590488948
0	8863	84.731514111075	0.005625257449
0	8865	84.737139368524	0.008114841352
0	8870	84.745254209876	0.104507047441
0	8880	84.849761257317	0.023939250069
0	8885	84.873700507386	0.136351341351
0	8890	85.010051848737	0.046707795145
0	8896	85.056759643882	0.001637330902
0	8898	85.058396974784	0.03135483894
0	8907	85.089751813724	0.064934522816
0	8913	85.15468633654	0.017097207152
0	8918	85.171783543692	0.03093074088
0	8923	85.202714284572	0.007736356323
0	8928	85.210450640895	0.015626858209
0	8933	85.226077499104	0.029097380867
0	8938	85.255174879971	0.070366709202
0	8944	85.325541589173	0.05866349811
0	8950	85.384205087283	0.045186899604
0	8955	85.429391986887	0.026340994286
0	8960	85.455732981173	0.034932017647
0	8965	85.49066499882	0.080029421009
0	8970	85.570694419829	0.052334028441
0	8975	85.62302844827	0.056533344522
0	8981	85.679561792792	0.094671311752
0	8989	85.774233104544	0.015816408558
0	8994	85.790049513102	0.014030769964
0	8999	85.804080283066	0.13737163217
0	9004	85.941451915236	0.111824300719
0	9015	86.053276215955	0.050148722169
0	9020	86.103424938124	0.083892321808
0	9026	86.187317259932	0.021756154072
0	9031	86.209073414004	0.236882171675
0	9038	86.445955585679	0.044452037183
0	9044	86.490407622862	0.003218985834
0	9046	86.493626608696	0.017626487454
0	9054	86.51125309615	0.006671131203
0	9056	86.517924227353	0.02059853018
0	9065	86.538522757533	0.019086311848
0	9070	86.557609069381	0.008251429603
0	9075	86.565860498984	0.01534975187
0	9080	86.581210250854	0.066631924393
0	9085	86.647842175247	0.024298290575
0	9090	86.672140465822	0.171293171708
0	9095	86.84343363753	0.084377528165
0	9101	86.927811165695	0.004350639088
0	9103	86.932161804783	0.134365559736
0	9111	87.066527364519	0.12750597291
0	9117	87.194033337429	0.010273263012
0	9122	87.204306600441	0.06627194761
0	9129	87.270578548051	0.146806434731
0	9135	87.417384982782	0.023368419619
0	9140	87.440753402401	0.025885757801
0	9146	87.466639160202	0.03491829322
0	9151	87.501557453422	0.00719939201
0	9153	87.508756845432	0.044214442396
0	9161	87.552971287828	0.020433577257
0	9166	87.573404865085	0.020609310956
0	9171	87.594014176041	0.002903144246
0	9173	87.596917320287	0.024092694959
0	9181	87.621010015246	0.120407144841
0	9187	87.741417160087	0.086767224775
0	9193	87.828184384862	0.077234437024
0	9199	87.905418821886	0.068870781547
0	9205	87.974289603433	0.000311629525
0	9207	87.974601232958	0.070231255473
0	9215	88.044832488431	0.007882970037
0	9217	88.052715458468	0.078194461239
0	9226	88.130909919707	0.002029724226
0	9228	88.132939643933	0.003575386311
0	9230	88.136515030244	0.235225329147
0	9243	88.371740359391	0.010657098067
0	9248	88.382397457458	0.038966309606
0	9253	88.421363767064	0.019217614043
0	9258	88.440581381107	0.005620105253
0	9260	88.44620148636	0.070124783276
0	9269	88.516326269636	0.072617323957
0	9274	88.588943593593	0.078968314771
0	9279	88.667911908364	0.038983688422
0	9284	88.706895596786	0.032475981387
0	9289	88.739371578173	0.020704392431
0	9294	88.760075970604	0.233827448355
0	9299	88.993903418959	0.082895887069
0	9305	89.076799306028	0.250152679753
0	9315	89.326951985781	0.007365741646
0	9318	89.334317727427	0.006278722718
0	9323	89.340596450145	0.058597319054
0	9331	89.399193769199	0.005326707118
0	9333	89.404520476317	0.007521418155
0	9338	89.412041894472	0.030149435234
0	9347	89.442191329706	0.071764865307
0	9352	89.513956195013	0.014689759836
0	9357	89.528645954849	0.240162641626
0	9364	89.768808596475	0.034430566835
0	9370	89.80323916331	0.027974057194
0	9376	89.831213220504	0.012816335862
0	9383	89.844029556366	0.065176652094
0	9389	89.90920620846	0.029432044816
0	9395	89.938638253276	0.022148503827
0	9400	89.960786757103	0.030672626314
0	9405	89.991459383417	0.024984327345
0	9411	90.016443710762	0.010687854549
0	9416	90.027131565311	0.011932495976
0	9421	90.039064061287	0.115954268091
0	9427	90.155018329378	0.014441846946
0	9432	90.169460176324	0.052360714103
0	9437	90.221820890427	0.108668496084
0	9443	90.330489386511	0.119459462474
0	9448	90.449948848985	0.044912901014
0	9453	90.494861749999	0.012270653552
0	9458	90.507132403551	0.019645076356
0	9463	90.526777479907	0.009366943279
0	9468	90.536144423186	0.093466088937
0	9473	90.629610512123	0.096336763678
0	9479	90.725947275801	0.018666615221
0	9484	90.744613891022	0.107616623039
0	9490	90.852230514061	0.029438499654
0	9495	90.881669013715	0.012998487322
0	9500	90.894667501037	0.013451041085
0	9505	90.908118542122	0.004984499164
0	9507	90.913103041286	0.027350066926
0	9515	90.940453108212	0.024756677543
0	9520	90.965209785755	0.028915170873
0	9525	90.994124956628	0.035275168031
0	9530	91.029400124659	0.020433133554
0	9535	91.049833258213	0.018772510623
0	9540	91.068605768836	0.046262948729
0	9545	91.114868717565	0.07954232121
0	9550	91.194411038775	0.018534472716
0	9555	91.212945511491	0.00877272603
0	9560	91.221718237521	0.054889782825
0	9565	91.276608020346	0.174857543924
0	9573	91.45146556427	0.033926160869
0	9578	91.485391725139	0.13798331556
0	9583	91.623375040699	0.070657619162
0	9590	91.694032659861	0.060729533706
0	9595	91.754762193567	0.000764183089
0	9597	91.755526376656	0.064858990777
0	9605	91.820385367433	0.049608672833
0	9611	91.869994040266	0.084926170424
0	9618	91.95492021069	0.01229065312
0	9623	91.96721086381	0.005538513925
0	9625	91.972749377735	0.253920676292
0	9636	92.226670054027	0.092294271999
0	9642	92.318964326026	0.083218508036
0	9647	92.402182834062	0.111275135995
0	9652	92.513457970057	0.01591619699
0	9657	92.529374167047	0.044246877832
0	9662	92.573621044879	0.035849063128
0	9667	92.609470108007	0.014522323111
0	9674	92.623992431118	0.12906599457
0	9680	92.753058425688	0.009685762024
0	9685	92.762744187712	0.035228166403
0	9690	92.797972354115	0.034806602958
0	9695	92.832778957073	0.074929512425
0	9702	92.907708469498	0.111482754874
0	9707	93.019191224372	0.013862557474
0	9712	93.033053781846	0.000148460641
0	9714	93.033202242487	0.019669595734
0	9722	93.052871838221	0.009308090272
0	9728	93.062179928493	0.204789305918
0	9737	93.266969234411	0.028284893494
0	9742	93.295254127905	0.093253221312
0	9748	93.388507349217	0.255617811345
0	9755	93.644125160562	0.03734311447
0	9761	93.681468275032	0.019226834318
0	9766	93.70069510935	0.041692288415
0	9771	93.742387397765	0.003361693239
0	9773	93.745749091004	0.061716926719
0	9781	93.807466017723	0.058254986871
0	9786	93.865721004594	0.05089951386
0	9792	93.916620518454	0.010135959259
0	9797	93.926756477713	0.046879661773
0	9802	93.973636139486	0.104269737529
0	9809	94.077905877015	0.099343264846
0	9814	94.177249141861	0.002290947298
0	9816	94.179540089159	0.03490245799
0	9824	94.214442547149	0.126503981646
0	9830	94.340946528795	0.022882857758
0	9835	94.363829386553	0.02532082053
0	9841	94.389150207083	0.010443526134
0	9846	94.399593733217	0.008105183096
0	9851	94.407698916313	0.110104643145
0	9856	94.517803559458	0.023418529084
0	9861	94.541222088542	0.107883089696
0	9866	94.649105178238	0.027811671064
0	9871	94.676916849302	0.084185008332
0	9876	94.761101857634	0.080995582413
0	9881	94.842097440047	0.227026648739
0	9887	95.069124088786	0.106623441044
0	9892	95.17574752983	0.186995545861
0	9900	95.362743075691	0.03755140025
0	9905	95.400294475941	0.0767258962
0	9910	95.477020372141	0.00759621416
0	9912	95.484616586301	0.042507551955
0	9920	95.527124138256	0.043420211323
0	9926	95.570544349579	0.026450769706
0	9932	95.596995119285	0.036780235957
0	9937	95.633775355242	0.04032114251
0	9942	95.674096497752	0.008625203089
0	9947	95.682721700841	0.006709599716
0	9949	95.689431300557	0.042314658144
0	9957	95.731745958701	0.0009727886
0	9959	95.732718747301	0.095454970831
0	9968	95.828173718132	0.232059513545
0	9976	96.060233231677	0.027868645121
0	9981	96.088101876798	0.152510518652
0	9988	96.24061239545	0.02413376001
0	9993	96.26474615546	0.011686981932
0	9998	96.276433137392	0.031897149467
0	10003	96.308330286859	0.225381300059
0	10008	96.533711586918	0.022709578681
0	10013	96.556421165599	0.018122283701
0	10018	96.5745434493	0.238223989204
0	10025	96.812767438504	0.102065068283
0	10031	96.914832506787	0.041839419458
0	10036	96.956671926245	0.011700726563
0	10041	96.968372652808	0.104757768036
0	10046	97.073130420844	0.011841870471
0	10051	97.084972291315	0.012925034976
0	10056	97.097897326291	0.046035381344
0	10061	97.143932707635	0.140644374607
0	10069	97.284577082242	0.029005629011
0	10074	97.313582711253	0.013003241316
0	10080	97.326585952569	0.014206032617
0	10085	97.340791985186	0.022258164964
0	10090	97.36305015015	0.014259450564
0	10095	97.377309600714	0.01080858891
0	10100	97.388118189624	0.086748883657
0	10105	97.474867073281	0.028296291927
0	10110	97.503163365208	0.020921498644
0	10115	97.524084863852	0.094419723786
0	10120	97.618504587638	0.032549855986
0	10126	97.651054443624	0.182953698102
0	10132	97.834008141726	0.056924571222
0	10137	97.890932712948	0.063044648624
0	10142	97.953977361572	0.047403863879
0	10148	98.001381225451	0.142933157074
0	10154	98.144314382525	0.02062843648
0	10159	98.164942819005	0.030789530192
0	10164	98.195732349197	0.054928226742
0	10170	98.250660575939	0.103187675915
0	10175	98.353848251854	0.006659416175
0	10177	98.360507668029	0.176676049844
0	10185	98.537183717873	0.126681447488
0	10190	98.663865165361	0.026270472118
0	10195	98.690135637479	0.059620542549
0	10203	98.749756180028	0.028374855834
0	10208	98.778131035862	0.09579927169
0	10213	98.873930307552	0.116352969793
0	10219	98.990283277345	0.070596693808
0	10225	99.060879971153	0.031660798281
0	10230	99.092540769434	0.071139755311
0	10236	99.163680524745	0.055543731483
0	10242	99.219224256228	0.010849860951
0	10248	99.230074117179	0.051242958008
0	10253	99.281317075187	0.006177858927
0	10255	99.287494934114	0.003721481831
0	10260	99.291216415945	0.004991374667
0	10262	99.296207790612	0.003837094171
0	10267	99.300044884783	0.007849652506
0	10272	99.307894537289	0.132671734343
0	10284	99.440566271632	0.017994120708
0	10289	99.45856039234	0.098859191113
0	10294	99.557419583453	0.055784821868
0	10300	99.613204405321	0.003823540526
0	10302	99.617027945847	0.015564611658
0	10310	99.632592557505	0.021066903977
0	10315	99.653659461482	0.029835128649
0	10320	99.683494590131	0.036745897481
0	10325	99.720240487612	0.036389294408
0	10330	99.75662978202	0.010320898838
0	10336	99.766950680858	0.00437391613
0	10338	99.771324596988	0.022001003891
0	10346	99.793325600879	0.01576847334
0	10351	99.809094074219	0.038608818332
0	10356	99.847702892551	0.022075852846
0	10361	99.869778745397	0.230209630568
0	10371	100.099988375965	0.127064846103
0	10376	100.227053222068	0.027322904155
0	10381	100.254376126223	0.139566896177
0	10387	100.3939430224	0.03275164208
0	10394	100.42669466448	0.041983328544
0	10399	100.468677993024	0.048165452071
0	10404	100.516843445095	0.062821874253
0	10409	100.579665319348	0.037686480026
0	10414	100.617351799374	0.009496450246
0	10419	100.62684824962	0.134879644612
0	10425	100.761727894232	0.012063337074
0	10430	100.773791231306	0.003553480877
0	10432	100.777344712183	0.125686170466
0	10440	100.903030882649	0.071500200165
0	10445	100.974531082814	0.01588455565
0	10451	100.990415638464	0.006709467367
0	10453	100.997125105831	0.005253966941
0	10458	101.002379072772	0.062639370399
0	10466	101.065018443171	0.001179734845
0	10468	101.066198178016	0.061114057232
0	10476	101.127312235248	0.122515594458
0	10482	101.249827829706	0.193792013994
0	10487	101.4436198437	0.080065113668
0	10492	101.523684957368	0.006636893181
0	10494	101.530321850549	0.140905675377
0	10503	101.671227525926	0.01025740212
0	10508	101.681484928046	0.00591837692
0	10510	101.687403304966	0.072287275857
0	10518	101.759690580823	0.010948278449
0	10523	101.770638859272	0.060517015729
0	10528	101.831155875001	0.107751695908
0	10534	101.938907570909	0.034587564856
0	10539	101.973495135765	0.280169652301
0	10547	102.253664788066	0.006117929732
0	10549	102.259782717798	0.023531977628
0	10557	102.283314695426	0.059153669107
0	10562	102.342468364533	0.146034955601
0	10569	102.488503320134	0.010059341591
0	10574	102.498562661725	0.011372895915
0	10579	102.50993555764	0.028373430823
0	10584	102.538308988463	0.031445636639
0	10590	102.569754625102	0.011604155118
0	10595	102.58135878022	0.004859531838
0	10597	102.586218312058	0.080631867037
0	10606	102.666850179095	0.00046565999
0	10608	102.667315839085	0.116039254387
0	10617	102.783355093472	0.009861071934
0	10622	102.793216165406	0.004976764632
0	10624	102.798192930038	0.023256914066
0	10632	102.821449844104	0.066088782307
0	10638	102.887538626411	0.03758165424
0	10644	102.925120280651	0.097140537735
0	10650	103.022260818386	0.023845981873
0	10655	103.046106800259	0.007934516192
0	10657	103.054041316451	0.046813575753
0	10665	103.100854892204	0.102485720908
0	10673	103.203340613112	0.032109427082
0	10678	103.235450040194	0.06054433775
0	10683	103.295994377944	0.013648686567
0	10688	103.309643064511	0.125401543464
0	10694	103.435044607975	0.026284979704
0	10699	103.461329587679	0.001569820592
0	10701	103.462899408271	0.047441747145
0	10709	103.510341155416	0.005872542062
0	10711	103.516213697478	0.027434705639
0	10719	103.543648403117	0.137597057925
0	10725	103.681245461042	0.070236863436
0	10731	103.751482324478	0.001188310547
0	10733	103.752670635025	0.023982583333
0	10741	103.776653218358	0.015868601504
0	10746	103.792521819862	0.000989205315
0	10748	103.793511025177	0.011133552043
0	10753	103.80464457722	0.020937381277
0	10761	103.825581958497	0.008158876441
0	10766	103.833740834938	0.040489471864
0	10771	103.874230306802	0.028343599776
0	10776	103.902573906578	0.09792268269
0	10782	104.000496589268	0.018359478933
0	10787	104.018856068201	0.005251376474
0	10789	104.024107444675	0.069306947192
0	10797	104.093414391867	0.018918338836
0	10803	104.112332730703	0.000512363935
0	10805	104.112845094638	0.042191725876
0	10814	104.155036820514	0.071407454358
0	10820	104.226444274872	0.121252698379
0	10825	104.347696973251	0.07589345739
0	10831	104.423590430641	0.024708469465
0	10836	104.448298900106	0.135405811772
0	10841	104.583704711878	0.188395055884
0	10847	104.772099767762	0.056880438188
0	10852	104.82898020595	0.100179284012
0	10857	104.929159489962	0.01498392698
0	10862	104.944143416942	0.193648605122
0	10869	105.137792022064	0.071483814959
0	10874	105.209275837023	0.090767774102
0	10879	105.300043611125	0.034690494495
0	10884	105.33473410562	0.01782947499
0	10889	105.35256358061	0.033378829574
0	10894	105.385942410184	0.095746541464
0	10901	105.481688951648	0.034531737059
0	10906	105.516220688707	0.060611895926
0	10912	105.576832584633	0.054648190019
0	10917	105.631480774652	0.00736293353
0	10919	105.638843708182	0.040206758165
0	10927	105.679050466347	0.025187445385
0	10932	105.704237911732	0.127156398248
0	10938	105.83139430998	0.005009934731
0	10940	105.836404244711	0.005254863651
0	10945	105.841659108362	0.081029612836
0	10955	105.922688721198	0.017108325143
0	10960	105.939797046341	0.069025871133
0	10965	106.008822917474	0.013728736737
0	10970	106.022551654211	0.037355788182
0	10975	106.059907442393	0.043473077678
0	10980	106.103380520071	0.025087346793
0	10986	106.128467866864	0.016244415397
0	10991	106.144712282261	0.002081538107
0	10993	106.146793820368	0.032794173782
0	11001	106.17958799415	0.003452630452
0	11004	106.183040624602	0.038783307433
0	11013	106.221823932035	0.030902012089
0	11018	106.252725944124	0.014465002758
0	11023	106.267190946882	0.038063626849
0	11028	106.305254573731	0.001929457179
0	11030	106.30718403091	0.033157673905
0	11038	106.340341704815	0.023814857669
0	11043	106.364156562484	0.03052003097
0	11048	106.394676593454	0.034988533327
0	11054	106.429665126781	0.033153296863
0	11060	106.462818423644	0.004187599573
0	11062	106.467006023217	0.02900232164
0	11070	106.496008344857	0.036668679758
0	11075	106.532677024615	0.051305009706
0	11081	106.583982034321	0.074863386849
0	11087	106.65884542117	0.052138482724
0	11093	106.710983903894	0.005236515676
0	11095	106.71622041957	0.042059729013
0	11103	106.758280148583	0.052671584855
0	11108	106.810951733438	0.183287274503
0	11114	106.994239007941	0.017897021545
0	11119	107.012136029486	0.011390173486
0	11124	107.023526202972	0.079340985409
0	11131	107.102867188381	0.016548428475
0	11136	107.119415616856	0.034097682911
0	11141	107.153513299767	0.00070640398
0	11143	107.154219703747	0.006447335843
0	11145	107.16066703959	0.006077801354
0	11150	107.166744840944	0.019117039257
0	11161	107.185861880201	0.004661401844
0	11163	107.190523282045	0.009305783823
0	11168	107.199829065868	0.117663848792
0	11180	107.31749291466	0.005581223736
0	11182	107.323074138396	0.077230797034
0	11191	107.40030493543	0.1585851796
0	11196	107.55889011503	0.006871011573
0	11198	107.565761126603	0.022151030748
0	11207	107.587912157351	0.142891253822
0	11213	107.730803411173	0.210714456675
0	11218	107.941517867848	0.090374709054
0	11224	108.031892576902	0.0168422319
0	11229	108.048734808802	0.059715654636
0	11234	108.108450463438	0.004877316471
0	11236	108.113327779909	0.057782447384
0	11246	108.171110227293	0.048074949991
0	11252	108.219185177284	0.015717682226
0	11257	108.23490285951	0.015513236145
0	11262	108.250416095655	0.101946095262
0	11267	108.352362190917	0.210680790412
0	11275	108.563042981329	0.09520768563
0	11281	108.658250666959	0.010899568447
0	11286	108.669150235406	0.031821988801
0	11291	108.700972224207	0.119143166376
0	11297	108.820115390583	0.042142500927
0	11302	108.86225789151	0.120197679867
0	11307	108.982455571377	0.093862422203
0	11312	109.07631799358	0.12836980225
0	11319	109.20468779583	0.294573587078
0	11327	109.499261382908	0.090824808993
0	11334	109.590086191901	0.035827089045
0	11339	109.625913280946	0.007006682551
0	11341	109.632919963497	0.014017129838
0	11349	109.646937093335	0.083669626784
0	11354	109.730606720119	0.092398130731
0	11360	109.82300485085	0.042174304306
0	11365	109.865179155156	0.109684250472
0	11370	109.974863405628	0.038899215525
0	11375	110.013762621153	0.010410255304
0	11380	110.024172876457	0.026008994797
0	11385	110.050181871254	0.032372125397
0	11390	110.082553996651	0.012923151145
0	11395	110.095477147796	0.029255028729
0	11400	110.124732176525	0.038551321949
0	11405	110.163283498474	0.05902448275
0	11411	110.222307981224	0.089074237697
0	11416	110.311382218921	0.000229285423
0	11418	110.311611504344	0.005539709664
0	11421	110.317151214008	0.105719189125
0	11435	110.422870403133	0.068574753821
0	11440	110.491445156954	0.058881220233
0	11446	110.550326377187	0.004830692043
0	11448	110.55515706923	0.215905737278
0	11461	110.771062806508	0.045281589662
0	11467	110.81634439617	0.081899928246
0	11472	110.898244324416	0.000186031346
0	11474	110.898430355762	0.054741663772
0	11482	110.953172019534	0.028614277948
0	11487	110.981786297482	0.116735945549
0	11493	111.098522243031	0.06898843062
0	11498	111.167510673651	0.058889707253
0	11503	111.226400380904	0.035616189148
0	11508	111.262016570052	0.114063950324
0	11515	111.376080520376	0.011725182428
0	11521	111.387805702804	0.025676548953
0	11526	111.413482251757	0.03590273564
0	11532	111.449384987397	0.040021029338
0	11537	111.489406016735	0.124229518386
0	11542	111.613635535121	0.013781308988
0	11547	111.627416844109	0.017691290755
0	11552	111.645108134864	0.10356330218
0	11558	111.748671437044	0.045228603971
0	11563	111.793900041015	0.034168486148
0	11568	111.828068527163	0.07714420788
0	11573	111.905212735043	0.006122158054
0	11575	111.911334893097	0.011195253712
0	11583	111.922530146809	0.025030357058
0	11588	111.947560503867	0.088024537708
0	11593	112.035585041575	0.025186494071
0	11598	112.060771535646	0.000835858454
0	11600	112.0616073941	0.050543590988
0	11608	112.112150985088	0.003642294013
0	11610	112.115793279101	0.008283315099
0	11615	112.1240765942	0.057257290089
0	11623	112.181333884289	0.017017736083
0	11629	112.198351620372	0.096703528779
0	11634	112.295055149151	0.093816807094
0	11639	112.388871956245	0.000138919055
0	11641	112.3890108753	0.084819369799
0	11649	112.473830245099	0.051435878924
0	11654	112.525266124023	0.001287101526
0	11656	112.526553225549	0.034060102971
0	11664	112.56061332852	0.010647838445
0	11669	112.571261166965	0.018466357442
0	11674	112.589727524407	0.172434172572
0	11681	112.762161696979	0.199372580111
0	11689	112.96153427709	0.01213121616
0	11694	112.97366549325	0.175767874096
0	11701	113.149433367346	0.02484575492
0	11707	113.174279122266	0.055426569349
0	11714	113.229705691615	0.027993779224
0	11719	113.257699470839	0.006168502815
0	11721	113.263867973654	0.002587756106
0	11726	113.26645572976	0.089016716652
0	11735	113.355472446412	0.004657680991
0	11737	113.360130127403	0.038813618532
0	11746	113.398943745935	0.019126031941
0	11751	113.418069777876	0.013238716774
0	11756	113.43130849465	0.12274623317
0	11764	113.55405472782	0.091820735054
0	11770	113.645875462874	0.064428132902
0	11776	113.710303595776	0.065896434799
0	11781	113.776200030575	0.025718257411
0	11787	113.801918287986	0.013813711259
0	11793	113.815731999245	0.113660789437
0	11799	113.929392788682	0.012102459631
0	11804	113.941495248313	0.122300450991
0	11809	114.063795699304	0.026169714614
0	11814	114.089965413918	0.075863380154
0	11820	114.165828794072	0.160627331074
0	11827	114.326456125146	0.003730077691
0	11829	114.330186202837	0.017979055487
0	11837	114.348165258324	0.102026502381
0	11843	114.450191760705	0.012131330815
0	11848	114.46232309152	0.008078004664
0	11853	114.470401096184	0.043815162279
0	11858	114.514216258463	0.039092211076
0	11863	114.553308469539	0.074168675161
0	11868	114.6274771447	0.050621259142
0	11873	114.678098403842	0.010056408045
0	11878	114.688154811887	0.010009014332
0	11883	114.698163826219	0.004114854657
0	11885	114.702278680876	0.06429126706
0	11894	114.766569947936	0.052803851819
0	11899	114.819373799755	0.075785953641
0	11904	114.895159753396	0.0234667726
0	11909	114.918626525996	0.046258128735
0	11915	114.964884654731	0.020215392469
0	11921	114.9851000472	0.070160875056
0	11927	115.055260922256	0.073416354863
0	11932	115.128677277119	0.050126063303
0	11938	115.178803340422	0.011288575935
[...]
19	20402	191.937791101967	0.88210581435558
19	20503	192.819896916323	4.0028521742404
19	20910	196.822749090563	2.7087748722192
19	21177	199.531523962782	0.73620468936691
19	21241	200.267728652149	1.9709616555387
19	21452	202.238690307688	0.94897397274676
19	21583	203.187664280435	4.3363225736534
19	22008	207.523986854088	0.55621396674497
19	22067	208.080200820833	0.41159279151672
19	22132	208.49179361235	1.1078719869573
19	22231	209.599665599307	3.8616865526143
19	22661	213.461352151921	0.45303774685818
19	22716	213.914389898779	2.621432176576
19	23040	216.535822075355	2.5950870327353
19	23334	219.13090910809	3.0932781204566
19	23641	222.224187228547	0.67465344100403
19	23721	222.898840669551	7.1295839352032
19	24520	230.028424604754	0.25722162066069
19	24549	230.285646225415	0.94087740063816
19	24652	231.226523626053	2.3514671574826
19	24887	233.577990783536	2.7710789087062
19	25192	236.349069692242	4.5751847251042
19	25730	240.924254417346	7.4266247789638
19	26511	248.35087919631	0.082019813085694
19	26520	248.432899009396	1.8410022961417
19	26671	250.273901305538	1.1886692661822
19	26812	251.46257057172	2.1647706415518
19	27041	253.627341213272	1.5907696270334
19	27223	255.218110840305	0.66868199923616
19	27303	255.886792839541	1.8599082026791
19	27508	257.74670104222	5.2294786132
19	28027	262.97617965542	3.9550884636064
19	28499	266.931268119026	1.149521665604
19	28645	268.08078978463	0.99322148861997
19	28770	269.07401127325	5.1854487579159
19	29413	274.259460031166	0.28691978092029
19	29430	274.546379812086	0.17664177861676
19	29448	274.723021590703	1.4545664770513
19	29640	276.177588067754	1.1155949528076
19	29777	277.293183020562	0.19606659826613
19	29798	277.489249618828	0.94826566911544
19	29917	278.437515287943	2.0822875638792
19	30115	280.519802851822	0.38867573513374
19	30150	280.908478586956	0.21671536065905
19	30182	281.125193947615	0.35100447880149
19	30217	281.476198426416	2.232301241801
19	30448	283.708499668217	2.0824065815516
19	30699	285.790906249769	2.1480744946714
19	30904	287.93898074444	3.3302572572466
19	31196	291.269238001687	0.5716277772799
19	31262	291.840865778967	2.4269209038531
19	31517	294.26778668282	2.004229670602
19	31758	296.272016353422	0.88514359087204
19	31863	297.157159944294	2.5410263375674
19	32108	299.698186281861	0.75314156758507
19	32200	300.451327849446	1.2993752877353
19	32339	301.750703137181	0.017421985003076
19	32340	301.768125122184	1.4467085415029
19	32458	303.214833663687	0.18350908051254
19	32480	303.3983427442	2.0170173752634
19	32718	305.415360119463	1.0242649851383
19	32828	306.439625104601	0.2166649059448
19	32840	306.656290010546	0.048851725294894
19	32853	306.705141735841	2.2060399587881
19	33048	308.911181694629	0.8210032338417
19	33156	309.732184928471	0.23177228072046
19	33168	309.963957209191	0.62914805808096
19	33222	310.593105267272	1.9113250908321
19	33437	312.504430358104	5.5138466527751
19	34018	318.018277010879	4.933414056984
19	34636	322.951691067863	1.3977725640791
19	34766	324.349463631942	2.6681753400331
19	35082	327.017638971975	0.78857389323899
19	35205	327.806212865214	2.6662100875831
19	35465	330.472422952797	0.45909649565327
19	35499	330.93151944845	5.7687205582336
19	36194	336.700240006684	2.4872477459296
19	36455	339.187487752614	0.20985386279192
19	36488	339.397341615406	0.32312294445553
19	36520	339.720464559862	3.2828196202133
19	36841	343.003284180075	0.27663162346543
19	36883	343.27991580354	1.0657192847917
19	37003	344.345635088332	2.4037689643032
19	37279	346.749404052635	3.0686649123561
19	37616	349.818068964991	1.0998468836093
19	37685	350.9179158486	2.2643123835379
19	37926	353.182228232138	0.17589064697452
19	37953	353.358118879113	1.1957529621218
19	38092	354.553871841235	5.0975475364985
19	38734	359.651419377733	0.52581311471211
19	38805	360.177232492445	3.0774210263576
19	39176	363.254653518803	5.1969844206208
19	39768	368.451637939424	1.6615380525918
19	39922	370.113175992016	4.4252152321075
19	40383	374.538391224124	0.11800913992139
19	40384	374.656400364045	2.6460110538813
19	40620	377.302411417926	5.9941519769754
19	41308	383.296563394901	4.039279464511
19	41674	387.335842859412	1.5437367940854
19	41844	388.879579653497	1.9993130218799
19	42087	390.878892675377	1.5766045376248
19	42296	392.455497213002	0.75832537448528
19	42384	393.213822587487	0.87058413898588
19	42481	394.084406726473	3.1721304183089
19	42842	397.256537144782	0.03848260885801
19	42843	397.29501975364	0.079781308444111
19	42844	397.374801062084	1.3570885146098
19	43006	398.731889576694	0.38314943576527
19	43037	399.115039012459	2.350762415449
20	1693	16.209459397045	1.2035007419323
20	1861	17.412960138977	0.29669630005173
20	1891	17.709656439029	0.2570558672244
20	1937	17.966712306253	0.26489992817001
20	1982	18.231612234423	0.099023756532744
20	1993	18.330635990956	0.4517657891726
20	2034	18.782401780129	0.19683175392022
20	2055	18.979233534049	3.3974260306662
20	2387	22.376659564715	5.5551018221751
20	3025	27.93176138689	2.7272396732982
20	3236	30.659001060188	0.97067575139545
20	3310	31.629676811583	3.4541931695326
20	3689	35.083869981116	5.1036266589692
20	4269	40.187496640085	2.714205081655
20	4583	42.90170172174	4.9207734706118
20	5098	47.822475192352	0.53247279217333
20	5151	48.354947984525	0.63485500685642
20	5233	48.989802991381	2.3871442499398
20	5485	51.376947241321	0.7826604950974
20	5578	52.159607736418	0.95237193299859
20	5709	53.111979669417	0.016726679562523
20	5719	53.12870634898	0.07260706340704
20	5730	53.201313412387	1.383424646783
20	5940	54.58473805917	1.0360675143567
20	6040	55.620805573527	10.831585828393
20	6998	66.45239140192	11.016480335442
20	8146	77.468871737362	1.6608033994842
20	8341	79.129675136846	0.61790116804309
20	8408	79.747576304889	3.6226039607995
20	8738	83.370180265689	0.27306543141893
20	8756	83.643245697108	1.1828947205376
20	8879	84.826140417646	1.2169305122095
20	9014	86.043070929855	0.078966445760896
20	9025	86.122037375616	1.3348202105234
20	9145	87.456857586139	0.81320519770389
20	9242	88.270062783843	1.3089578493622
20	9362	89.579020633205	0.49298139797728
20	9426	90.072002031182	2.5864095475634
20	9679	92.658411578745	0.21427324240401
20	9701	92.872684821149	2.3409935469932
20	9897	95.213678368142	2.4198482255093
20	10125	97.633526593651	1.9608889755834
20	10299	99.594415569234	6.5916102503442
20	11006	106.186025819578	2.4534433329356
20	11280	108.639469152514	0.82435031914745
20	11326	109.463819471661	4.3536007498813
20	11795	113.817420221542	2.7393051901408
20	12100	116.556725411683	0.040183562182632
20	12108	116.596908973866	0.28615834518043
20	12152	116.883067319046	0.39055605014732
20	12203	117.273623369193	0.16887630020257
20	12214	117.442499669396	5.7208046619697
20	12908	123.163304331366	1.6674419280326
20	13066	124.830746259399	1.2780480939807
20	13197	126.10879435338	3.9975058749259
20	13658	130.106300228306	1.6411528374118
20	13809	131.747453065718	0.88006378070315
20	13915	132.627516846421	0.51400550152056
20	13976	133.141522347942	2.7407960966558
20	14258	135.882318444598	0.52953528092489
20	14347	136.411853725523	0.12915472999444
20	14364	136.541008455517	0.11914037209722
20	14371	136.660148827614	6.9210363465899
20	15125	143.581185174204	1.904098726547
20	15330	145.485283900751	0.53803252978994
20	15390	146.023316430541	0.17190663340298
20	15408	146.195223063944	0.30822162932117
20	15437	146.503444693265	1.3739725347565
20	15588	147.877417228021	2.3407204084744
20	15747	150.218137636495	1.0053489037898
20	15855	151.223486540285	3.2769075113515
20	16274	154.500394051637	2.6791991708356
20	16572	157.179593222473	0.1655281519857
20	16585	157.345121374459	0.092233040196676
20	16596	157.437354414656	0.77093243691521
20	16697	158.208286851571	0.39830728072038
20	16765	158.606594132291	2.485731187428
20	17072	161.092325319719	0.81667984299774
20	17219	161.909005162717	0.027872562564165
20	17225	161.936877725281	0.87927061607186
20	17347	162.816148341353	0.78474509942527
20	17403	163.600893440778	1.5839208416693
20	17581	165.184814282447	0.67461246809496
20	17654	165.859426750542	1.9038215467553
20	17854	167.763248297297	0.7949951241644
20	17919	168.558243421461	1.042426355817
20	18023	169.600669777278	0.38912468413305
20	18067	169.989794461411	1.7271976876439
20	18229	171.716992149055	4.78027635542
20	18744	176.497268504475	1.8543052839315
20	18923	178.351573788407	0.59838807138245
20	18996	178.949961859789	4.240369636653
20	19457	183.190331496442	2.2547733929694
20	19703	185.445104889411	1.6208394187288
20	19913	187.06594430814	2.3649529659794
20	20160	189.430897274119	0.56511991038418
20	20241	189.996017184503	0.089494282621705
20	20263	190.085511467125	0.95105945024042
20	20310	191.036570917365	2.9812918582466
20	20598	194.017862775612	1.2252175321565
20	20719	195.243080307768	5.9501421970878
20	21365	201.193222504856	5.8386707870206
20	21978	207.031893291877	3.1076342897723
20	22283	210.139527581649	0.25315859490899
20	22299	210.392686176558	1.2434686045494
20	22434	211.636154781107	4.5599856763225
20	22995	216.19614045743	3.1250827024898
20	23356	219.32122315992	0.3614203765716
20	23386	219.682643536492	2.7366929000303
20	23667	222.419336436522	0.29917100494251
20	23704	222.718507441465	0.75558875811028
20	23789	223.474096199575	0.042870499996124
20	23795	223.516966699571	1.4001868821463
20	23960	224.917153581717	0.69810658798553
20	24053	225.615260169703	3.24085729197
20	24393	228.856117461673	0.22856076638834
20	24433	229.084678228061	1.0126082104229
20	24531	230.097286438484	0.64779838603634
20	24604	230.74508482452	3.1704396805393
20	24957	233.915524505059	0.53246652974961
20	25000	234.447991034809	1.8561839232903
20	25190	236.304174958099	0.75091051729181
20	25268	237.055085475391	1.9716349047999
20	25495	239.026720380191	1.8492561724502
20	25724	240.875976552641	5.1455293449719
20	26255	246.021505897613	1.2373992570525
20	26416	247.258905154666	0.014926085912301
20	26427	247.273831240578	0.28764034728892
20	26448	247.561471587867	3.0199993901686
20	26731	250.581470978036	2.4301945099248
20	26994	253.011665487961	0.5692028624359
20	27031	253.580868350397	1.4274700547002
20	27183	255.008338405097	0.1259317666623
20	27209	255.134270171759	1.872474923232
20	27427	257.006745094991	1.028544324097
20	27529	258.035289419088	1.9756422597062
20	27738	260.010931678794	5.1186525408003
20	28286	265.129584219594	1.0248201001645
20	28421	266.154404319759	3.3953957572348
20	28813	269.549800076994	4.0030739970865
20	29304	273.55287407408	0.045876918973005
20	29306	273.598750993053	1.7242215575108
20	29534	275.322972550564	0.24499369191821
20	29562	275.567966242482	0.4509410152578
20	29619	276.01890725774	8.5690652859945
20	30546	284.587972543734	0.68145918344089
20	30630	285.269431727175	1.8333113188751
20	30812	287.10274304605	5.756103041119
20	31390	292.858846087169	0.091803773913827
20	31407	292.950649861083	3.6143761599044
20	31805	296.565026020987	0.0075512171541706
20	31806	296.572577238141	6.2241070359972
20	32419	302.796684274138	0.16899922765477
20	32446	302.965683501793	0.75483908406484
20	32534	303.720522585858	3.1794156002272
20	32864	306.899938186085	0.62505504739607
20	32906	307.524993233481	1.0574132594685
20	33003	308.582406492949	0.069984887690582
20	33009	308.65239138064	4.5527351517122
20	33510	313.205126532352	5.0574394246423
20	34056	318.262565956994	1.6707308003461
20	34299	319.93329675734	1.769491988561
20	34504	321.702788745901	0.39884999014297
20	34537	322.101638736044	4.239627095462
20	35000	326.341265831506	1.0375714465537
20	35144	327.37883727806	0.024246035093635
20	35157	327.403083313154	2.7662986587584
20	35452	330.169381971912	11.127243400255
20	36685	341.296625372167	1.1367236928909
20	36795	342.433349065058	0.81273417924445
20	36882	343.246083244302	2.5704599820632
20	37158	345.816543226365	0.7890252462071
20	37253	346.605568472572	2.2056366878213
20	37503	348.811205160393	0.011914231881888
20	37504	348.823119392275	0.87839956773264
20	37603	349.701518960008	1.6672042342917
20	37717	351.3687231943	1.0070747214872
20	37820	352.375797915787	0.46436976270515
20	37866	352.840167678492	0.3916038517032
20	37939	353.231771530195	0.99677803604557
20	38051	354.228549566241	0.6683605240528
20	38155	354.896910090294	2.710640031453
20	38520	357.607550121747	3.0382249406904
20	38836	360.645775062437	1.3935567650464
20	39036	362.039331827483	3.3505460407835
20	39441	365.389877868266	0.49947161616015
20	39512	365.889349484426	3.2187573133909
20	39833	369.108106797817	0.18182361124856
20	39847	369.289930409066	7.2810325369768
20	40547	376.570962946043	0.89518916327736
20	40646	377.46615210932	2.6101440461222
20	40962	380.076296155442	0.21783231622405
20	40988	380.294128471666	0.98337556460544
20	41069	381.277504036271	0.013996752424232
20	41070	381.291500788695	0.47088315885502
20	41144	381.76238394755	1.4254229429678
20	41290	383.187806890518	2.9536287527128
20	41572	386.141435643231	1.2419496239001
20	41688	387.383385267131	3.2265219778392
20	42061	390.60990724497	0.47136654996108
20	42126	391.081273794931	0.16477105066714
20	42143	391.246044845598	1.9043666435192
20	42377	393.150411489117	1.80336312091
20	42594	394.953774610027	6.3074640940453
21	1790	16.922717444539	0.22220861101301
21	1842	17.144926055552	0.60305027841759
21	1900	17.74797633397	0.24314402920097
21	1938	17.991120363171	5.8053246415075
21	2544	23.796445004679	2.5216259904619
21	2841	26.318070995141	4.4132997792311
21	3237	30.731370774372	1.3989034140828
21	3360	32.130274188455	1.4498916335933
21	3505	33.580165822048	6.9481262465553
21	4315	40.528292068603	2.0544077995186
21	4550	42.582699868122	3.1959777075767
21	4849	45.778677575699	5.1150781430135
21	5439	50.893755718712	0.98470486558817
21	5551	51.8784605843	2.0694984363118
21	5844	53.947959020612	1.5495724631202
21	6019	55.497531483732	3.670744273136
21	6353	59.168275756868	4.139252505436
21	6721	63.307528262304	0.86014004536032
21	6797	64.167668307664	8.055391408748
21	7574	72.223059716412	0.41594928588912
21	7608	72.639009002301	5.9689946844073
21	8291	78.608003686708	3.4920152118242
21	8606	82.100018898532	0.32465292377529
21	8640	82.424671822307	0.63101831568163
21	8721	83.055690137989	2.2882357835817
21	8949	85.343925921571	1.5803783674247
21	9100	86.924304288996	0.22485538227612
21	9116	87.149159671272	0.17543276477093
21	9134	87.324592436043	1.7590935089822
21	9307	89.083685945025	0.78605731110393
21	9388	89.869743256129	1.4913777901781
21	9571	91.361121046307	7.8625465191333
21	10244	99.22366756544	5.8396946669825
21	10867	105.063362232423	0.015584260403354
21	10868	105.078946492826	2.286269907992
21	11190	107.365216400818	1.9799233403611
21	11325	109.345139741179	1.048645359204
21	11433	110.393785100383	0.38642872015247
21	11466	110.780213820535	9.6319180039878
21	12584	120.412131824523	10.442771411105
21	13719	130.854903235628	0.36929936057937
21	13761	131.224202596207	2.8682772360556
21	14053	134.092479832263	1.9177817085198
21	14272	136.010261540783	1.9215057181107
21	14527	137.931767258894	2.1964202891805
21	14785	140.128187548074	0.96212984089375
21	14896	141.090317388968	3.0316284534287
21	15186	144.121945842397	1.5753418472525
21	15362	145.697287689649	0.30868626621003
21	15384	146.005973955859	1.7058530915454
21	15556	147.711827047404	2.3281133258994
21	15734	150.039940373303	0.16575857031658
21	15746	150.20569894362	0.085195311888497
21	15754	150.290894255508	3.3538041311432
21	16165	153.644698386651	0.77326590166019
21	16263	154.417964288311	1.1112078373458
21	16410	155.529172125657	3.0499412000333
21	16763	158.57911332569	0.75574298631095
21	16854	159.334856312001	2.6938910534979
21	17236	162.028747365499	0.40779186483071
21	17283	162.43653923033	0.66726793586798
21	17369	163.103807166198	0.62679011808155
21	17415	163.73059728428	0.3845013728821
21	17475	164.115098657162	0.60716447262322
21	17535	164.722263129785	5.307683277998
21	18068	170.029946407783	2.0383519054132
21	18262	172.068298313196	1.0075701895851
21	18351	173.075868502781	3.7665966996508
21	18769	176.842465202432	7.0535105735741
21	19559	183.895975776006	0.22252813432476
21	19571	184.118503910331	2.3760778127696
21	19857	186.494581723101	1.3428258135153
21	20004	187.837407536616	7.1697939697141
21	20687	195.00720150633	1.1828687794799
21	20823	196.19007028581	0.22230266599514
21	20873	196.412372951805	2.4985508469392
21	21116	198.910923798744	0.044774830720435
21	21125	198.955698629464	0.2866146159369
21	21143	199.242313245401	1.9210248423663
21	21358	201.163338087767	1.822450145874
21	21565	202.985788233641	3.6544522789298
21	21937	206.640240512571	4.0199715637453
21	22340	210.660212076316	0.21889101638111
21	22368	210.879103092697	2.5850801319377
21	22662	213.464183224635	2.8798759155368
21	23017	216.344059140172	0.62736638728282
21	23087	216.971425527455	1.3831384237091
21	23236	218.354563951164	0.88161495615997
21	23355	219.236178907324	1.4110514774908
21	23444	220.647230384815	2.4920655619795
21	23740	223.139295946795	7.2306722247084
21	24565	230.369968171503	9.2157372554616
21	25559	239.585705426965	0.52107769898084
21	25609	240.106783125946	3.0244279655475
21	25995	243.131211091493	2.271042184775
21	26192	245.402253276268	7.3148179819508
21	26965	252.717071258219	1.1125378448858
21	27054	253.829609103105	4.8371473400831
21	27590	258.666756443188	2.25139367618
21	27831	260.918150119368	2.6865676099744
21	28123	263.604717729342	1.4042766234896
21	28266	265.008994352832	3.012294645214
21	28638	268.021288998046	5.7820144251091
21	29347	273.803303423155	0.99896667900222
21	29449	274.802270102157	1.0699663046143
21	29596	275.872236406771	2.5261679450148
21	29916	278.398404351786	3.5499866053114
21	30265	281.948390957097	1.0938893506192
21	30375	283.042280307716	0.80623016135984
21	30459	283.848510469076	3.1478647659526
21	30809	286.996375235029	1.4951945573596
21	30948	288.491569792389	0.45214701962009
21	31002	288.943716812009	2.4362445597179
21	31199	291.379961371727	0.44756577993423
21	31256	291.827527151661	1.1437631522031
21	31410	292.971290303864	3.9595623698382
21	31839	296.930852673702	3.8182350870567
21	32230	300.749087760759	0.66461260008916
21	32305	301.413700360848	3.2301583573173
21	32635	304.643858718165	4.5642958373361
21	33077	309.208154555501	1.5246825402598
21	33237	310.732837095761	4.2755314118329
21	33681	315.008368507594	4.813323707371
21	34288	319.821692214965	7.1740744955582
21	35074	326.995766710523	4.8808579440082
21	35623	331.876624654531	1.4358250525352
21	35786	333.312449707066	1.4693358707586
21	35945	334.781785577825	0.82086042726274
21	36028	335.602646005088	0.47903942211283
21	36113	336.081685427201	2.4745582337277
21	36382	338.556243660929	1.8057848617432
21	36565	340.362028522672	0.081722102414088
21	36572	340.443750625086	0.11997694180073
21	36595	340.563727566887	2.421380703045
21	36838	342.985108269932	0.66190441976658
21	36928	343.647012689699	0.7246431761026
21	37009	344.371655865802	1.467977970645
21	37159	345.839633836447	3.1223577372282
21	37533	348.961991573675	0.99742002514371
21	37622	349.959411598819	0.93469610952016
21	37682	350.894107708339	0.056281981266513
21	37689	350.950389689606	2.3917556698961
21	37943	353.342145359502	0.051637526568112
21	37967	353.39378288607	0.042791982706764
21	37971	353.436574868777	3.6221444157816
21	38446	357.058719284559	1.5193187444744
21	38624	358.578038029033	4.0155735474166
21	39096	362.59361157645	0.058910270773701
21	39102	362.652521847224	1.0295350052001
21	39214	363.682056852424	2.7056373054549
21	39549	366.387694157879	2.1217336539794
21	39772	368.509427811858	1.3247376120151
21	39898	369.834165423873	1.3990220190512
21	40008	371.233187442924	1.582922498771
21	40154	372.816109941695	0.26448984441108
21	40204	373.080599786106	2.2068574116496
21	40436	375.287457197756	5.2259987551849
21	40994	380.513455952941	0.51274841155259
21	41043	381.026204364494	0.78525972001848
21	41147	381.811464084512	3.626590808128
21	41507	385.43805489264	1.9356544611579
21	41687	387.373709353798	6.0880971854594
21	42405	393.461806539257	1.8949508496353
21	42621	395.356757388892	6.482392982603

