file 4213584 1614185358                                         
version 2
run Nonmonitoring-exponential-402-20210224-17:49:17-26924
attr configname Nonmonitoring-exponential
attr datetime 20210224-17:49:17
attr experiment Nonmonitoring-exponential
attr inifile aerocom.ini
attr iterationvars $0=20
attr iterationvarsf 20-
attr measurement $0=20
attr network Aerocom
attr processid 26924
attr repetition 2
attr replication #2
attr resultdir results
attr runnumber 402
attr seedset 2
param **.t 2s
param **.k 20ms
param **.X 0.05s
param **.m 1s
param **.tDistribution "\"exponential\""
param **.operationMode 1
param **.s "70 byte"
param **.dimPoolMax 10000
param **.dimPoolMin 8000
param **.nDL 16
param **.nA 1
param **.DLMaxCapacity 0
param **.trasmitting false

vector 0 Aerocom.aircraft[0].linkSelector responseTime:vector ETV
attr "" ""
attr source computeResponseTime
vector 1 Aerocom.aircraft[0].dataLink[15] tDistribution:vector ETV
attr "" ""
attr source computeTDistribution
vector 2 Aerocom.aircraft[0].packetGenerator arrivalTime:vector ETV
attr "" ""
attr source computeArrivalTime
vector 3 Aerocom.aircraft[0].linkSelector waitingTime:vector ETV
attr "" ""
attr source computeWaitingTime
vector 4 Aerocom.aircraft[0].linkSelector queueLength:vector ETV
attr "" ""
attr source computeQueueLength
vector 5 Aerocom.aircraft[0].dataLink[14] actualCapacity:vector ETV
attr "" ""
attr source computeActualCapacity
vector 6 Aerocom.aircraft[0].linkSelector serviceTime:vector ETV
attr "" ""
attr source computeServiceTime
vector 7 Aerocom.aircraft[0].dataLink[4] tDistribution:vector ETV
attr "" ""
attr source computeTDistribution
vector 8 Aerocom.aircraft[0].dataLink[13] tDistribution:vector ETV
attr "" ""
attr source computeTDistribution
vector 9 Aerocom.aircraft[0].dataLink[11] tDistribution:vector ETV
attr "" ""
attr source computeTDistribution
vector 10 Aerocom.aircraft[0].dataLink[14] tDistribution:vector ETV
attr "" ""
attr source computeTDistribution
vector 11 Aerocom.aircraft[0].dataLink[12] tDistribution:vector ETV
attr "" ""
attr source computeTDistribution
vector 12 Aerocom.aircraft[0].dataLink[9] tDistribution:vector ETV
attr "" ""
attr source computeTDistribution
vector 13 Aerocom.aircraft[0].dataLink[5] tDistribution:vector ETV
attr "" ""
attr source computeTDistribution
vector 14 Aerocom.aircraft[0].dataLink[10] tDistribution:vector ETV
attr "" ""
attr source computeTDistribution
vector 15 Aerocom.aircraft[0].dataLink[7] tDistribution:vector ETV
attr "" ""
attr source computeTDistribution
vector 16 Aerocom.aircraft[0].dataLink[6] tDistribution:vector ETV
attr "" ""
attr source computeTDistribution
vector 17 Aerocom.aircraft[0].dataLink[3] tDistribution:vector ETV
attr "" ""
attr source computeTDistribution
vector 18 Aerocom.aircraft[0].dataLink[8] tDistribution:vector ETV
attr "" ""
attr source computeTDistribution
vector 19 Aerocom.aircraft[0].dataLink[2] tDistribution:vector ETV
attr "" ""
attr source computeTDistribution
vector 20 Aerocom.aircraft[0].dataLink[1] tDistribution:vector ETV
attr "" ""
attr source computeTDistribution
vector 21 Aerocom.aircraft[0].dataLink[0] tDistribution:vector ETV
attr "" ""
attr source computeTDistribution
0	3131 765700 2666 102761 10.004188902519 399.980801130307 19390 0.007011920264 0.048775988039 200.07834663477 2.4352616904803
1	768831 7224 2669 102700 10.013484490008 399.794689261303 177 0.0094698404641621 10.571153085838 392.40844218988 1485.5404519242
2	776055 765860 2670 102755 10.015376764604 399.967533022658 19389 6.86872e-07 0.222775288376 389.98736624044 15.650576484589
3	1541915 614229 2671 102758 10.015376764604 399.973112202363 19389 0 0.040485096176 48.207565798456 0.48306394422261
4	2156144 516039 2671 102758 10.015376764604 399.973112202363 19389 0 4 2320 3340
5	2672183 574206 2671 102758 10.015376764604 399.973112202363 19389 8019 9983 173715940 1560286809452
6	3246389 843077 2671 102758 10.015376764604 399.973112202363 19389 0.0070119202644496 0.0087292679885272 151.86288105069 1.1924225642755
7	4089466 8069 2695 102636 10.095172975822 399.635446473552 197 0.002869810654994 11.36556937863 398.52869533606 1624.3286555466
8	4097535 7876 2726 102212 10.193619205986 397.973069210263 193 0.00021785240564102 11.820183372561 390.31932345358 1556.7261051178
9	4105411 9097 2757 101680 10.38221760463 396.295950976209 222 0.0010303281394108 7.8134598384357 392.8813130561 1263.377630465
10	4114508 8169 2845 102701 10.643707134995 399.799865353224 195 0.011827523452377 10.750463662929 390.41760244592 1484.7268753139
11	4122677 8632 2854 102747 10.662979556391 399.910910423754 206 0.014568829016278 11.397805116473 390.72131413593 1506.676035429
12	4131309 7736 2872 101953 10.722210068331 397.119911887651 185 0.034044147902918 10.482060657759 394.37700072427 1619.8351933393
13	4139045 8595 2873 102363 10.738203567892 398.472896681099 205 0.0083948725355596 9.0869482853533 389.97371164168 1368.6247220498
14	4147640 8378 2900 100716 10.944426266723 392.583436985211 200 0.0071136829881651 10.683453574358 389.12984704742 1506.9623607575
15	4156018 8443 2992 102757 11.256763242887 399.968879084425 201 0.0046074648116693 10.416378108341 389.36366698753 1474.4528693423
16	4164461 9139 3050 102672 11.470976715924 399.735940565951 217 0.00096748231070852 10.575956046923 391.73799590461 1390.4403870728
17	4173600 8398 3141 102549 11.778807376225 399.247833676912 200 0.016431476204146 11.802727022865 388.22461832686 1579.7613773802
18	4181998 8244 3165 102679 11.898912640563 399.754711820046 196 0.0039307828011752 11.181034629901 393.82394327331 1584.2544526591
19	4190242 7284 3451 102599 13.075518914701 399.430240723083 174 0.0023583069883165 15.414290325557 388.14149891882 1795.4117872038
20	4197526 7939 3462 102678 13.137539900947 399.751050926288 189 0.0062579592017242 17.797918339339 387.63733429152 1795.1170823443
21	4205465 8118 4671 102445 17.828171716004 398.844068588227 193 0.0043568394680401 11.699003843561 382.60574205331 1634.9642141387

