version 2
run Nonmonitoring-exponential-504-20210224-17:49:26-27046
attr configname Nonmonitoring-exponential
attr datetime 20210224-17:49:26
attr experiment Nonmonitoring-exponential
attr inifile aerocom.ini
attr iterationvars $0=50
attr iterationvarsf 50-
attr measurement $0=50
attr network Aerocom
attr processid 27046
attr repetition 4
attr replication #4
attr resultdir results
attr runnumber 504
attr seedset 4
param **.t 2s
param **.k 50ms
param **.X 0.05s
param **.m 1s
param **.tDistribution "\"exponential\""
param **.operationMode 1
param **.s "70 byte"
param **.dimPoolMax 10000
param **.dimPoolMin 8000
param **.nDL 16
param **.nA 1
param **.DLMaxCapacity 0
param **.trasmitting false

vector 0 Aerocom.aircraft[0].packetGenerator arrivalTime:vector ETV
attr "" ""
attr source computeArrivalTime
vector 1 Aerocom.aircraft[0].linkSelector waitingTime:vector ETV
attr "" ""
attr source computeWaitingTime
vector 2 Aerocom.aircraft[0].linkSelector queueLength:vector ETV
attr "" ""
attr source computeQueueLength
vector 3 Aerocom.aircraft[0].dataLink[1] actualCapacity:vector ETV
attr "" ""
attr source computeActualCapacity
vector 4 Aerocom.aircraft[0].linkSelector serviceTime:vector ETV
attr "" ""
attr source computeServiceTime
vector 5 Aerocom.aircraft[0].linkSelector responseTime:vector ETV
attr "" ""
attr source computeResponseTime
vector 6 Aerocom.aircraft[0].dataLink[15] tDistribution:vector ETV
attr "" ""
attr source computeTDistribution
vector 7 Aerocom.aircraft[0].dataLink[14] tDistribution:vector ETV
attr "" ""
attr source computeTDistribution
vector 8 Aerocom.aircraft[0].dataLink[11] tDistribution:vector ETV
attr "" ""
attr source computeTDistribution
vector 9 Aerocom.aircraft[0].dataLink[12] tDistribution:vector ETV
attr "" ""
attr source computeTDistribution
vector 10 Aerocom.aircraft[0].dataLink[13] tDistribution:vector ETV
attr "" ""
attr source computeTDistribution
vector 11 Aerocom.aircraft[0].dataLink[10] tDistribution:vector ETV
attr "" ""
attr source computeTDistribution
vector 12 Aerocom.aircraft[0].dataLink[2] tDistribution:vector ETV
attr "" ""
attr source computeTDistribution
vector 13 Aerocom.aircraft[0].dataLink[6] tDistribution:vector ETV
attr "" ""
attr source computeTDistribution
vector 14 Aerocom.aircraft[0].dataLink[8] tDistribution:vector ETV
attr "" ""
attr source computeTDistribution
vector 15 Aerocom.aircraft[0].dataLink[1] tDistribution:vector ETV
attr "" ""
attr source computeTDistribution
vector 16 Aerocom.aircraft[0].dataLink[5] tDistribution:vector ETV
attr "" ""
attr source computeTDistribution
vector 17 Aerocom.aircraft[0].dataLink[3] tDistribution:vector ETV
attr "" ""
attr source computeTDistribution
vector 18 Aerocom.aircraft[0].dataLink[9] tDistribution:vector ETV
attr "" ""
attr source computeTDistribution
vector 19 Aerocom.aircraft[0].dataLink[4] tDistribution:vector ETV
attr "" ""
attr source computeTDistribution
vector 20 Aerocom.aircraft[0].dataLink[7] tDistribution:vector ETV
attr "" ""
attr source computeTDistribution
vector 21 Aerocom.aircraft[0].dataLink[0] tDistribution:vector ETV
attr "" ""
attr source computeTDistribution
0	1082	10.009187607679	0.104070697685
0	1088	10.113258305364	0.04528508648
0	1093	10.158543391844	0.037285723528
0	1098	10.195829115372	0.047184003255
0	1103	10.243013118627	0.013470613309
0	1108	10.256483731936	0.045766958189
0	1113	10.302250690125	0.007072109281
0	1115	10.309322799406	0.01871896561
0	1124	10.328041765016	0.039599825327
0	1129	10.367641590343	0.003621743199
0	1131	10.371263333542	0.103459760062
0	1139	10.474723093604	0.080655791137
0	1146	10.555378884741	0.052238597315
0	1151	10.607617482056	0.121200391887
0	1156	10.728817873943	0.028170214788
0	1161	10.756988088731	0.010825444682
0	1166	10.767813533413	0.026325071252
0	1171	10.794138604665	0.011824589302
0	1176	10.805963193967	0.077154101159
0	1181	10.883117295126	0.023695826164
0	1187	10.90681312129	0.015257569984
0	1192	10.922070691274	0.025779113508
0	1197	10.947849804782	0.016460961103
0	1202	10.964310765885	0.108218478089
0	1207	11.072529243974	0.001165887308
0	1209	11.073695131282	0.011292005715
0	1214	11.084987136997	0.055807714054
0	1222	11.140794851051	0.027151502223
0	1227	11.167946353274	0.007726426722
0	1233	11.175672779996	0.052200406441
0	1239	11.227873186437	0.004297170128
0	1241	11.232170356565	0.035835424101
0	1249	11.268005780666	0.055604965818
0	1254	11.323610746484	0.02031070569
0	1260	11.343921452174	0.067039850633
0	1265	11.410961302807	0.075360637425
0	1270	11.486321940232	0.045934619787
0	1275	11.532256560019	0.007276447599
0	1281	11.539533007618	0.002724868178
0	1283	11.542257875796	0.010641766554
0	1288	11.55289964235	0.016792251078
0	1297	11.569691893428	0.025757510021
0	1302	11.595449403449	0.068926702273
0	1308	11.664376105722	0.077286658576
0	1313	11.741662764298	0.026800724747
0	1318	11.768463489045	0.014638630185
0	1323	11.78310211923	0.007353002958
0	1328	11.790455122188	0.005797790292
0	1330	11.79625291248	0.034681284747
0	1339	11.830934197227	0.133448218018
0	1346	11.964382415245	0.008387340842
0	1351	11.972769756087	0.006755906253
0	1353	11.97952566234	0.003969356752
0	1358	11.983495019092	0.046444157723
0	1366	12.029939176815	0.127777573353
0	1372	12.157716750168	0.017133103211
0	1377	12.174849853379	0.009423716888
0	1382	12.184273570267	0.049245798466
0	1389	12.233519368733	0.035572579422
0	1394	12.269091948155	0.053863476847
0	1400	12.322955425002	0.01085479723
0	1405	12.333810222232	0.003506434494
0	1407	12.337316656726	0.038778804402
0	1415	12.376095461128	0.021959595149
0	1420	12.398055056277	0.080589062102
0	1425	12.478644118379	0.020377670463
0	1430	12.499021788842	0.010279205981
0	1435	12.509300994823	0.009770727152
0	1441	12.519071721975	0.018797541999
0	1446	12.537869263974	0.000401777078
0	1448	12.538271041052	0.004277339175
0	1450	12.542548380227	0.000524663327
0	1452	12.543073043554	0.047479957534
0	1467	12.590553001088	0.045497892174
0	1473	12.636050893262	0.020192744391
0	1478	12.656243637653	0.004421811283
0	1480	12.660665448936	0.116623096836
0	1490	12.777288545772	0.018965622346
0	1495	12.796254168118	0.041314639262
0	1500	12.83756880738	0.173076565852
0	1507	13.010645373232	0.026679601807
0	1512	13.037324975039	0.103408290173
0	1517	13.140733265212	0.014216084055
0	1522	13.154949349267	0.121968367484
0	1528	13.276917716751	0.095653422591
0	1533	13.372571139342	0.009310350505
0	1538	13.381881489847	0.042598805304
0	1543	13.424480295151	0.019048959775
0	1548	13.443529254926	0.051491630116
0	1554	13.495020885042	0.013839100471
0	1559	13.508859985513	0.122003912706
0	1565	13.630863898219	0.033760940076
0	1570	13.664624838295	0.045841764073
0	1575	13.710466602368	0.039256919049
0	1580	13.749723521417	0.044929830383
0	1585	13.7946533518	0.025997892213
0	1590	13.820651244013	0.051386628221
0	1595	13.872037872234	0.067819365367
0	1600	13.939857237601	0.032538659593
0	1607	13.972395897194	0.051603742888
0	1612	14.023999640082	0.084260279716
0	1617	14.108259919798	0.053844009712
0	1622	14.16210392951	0.035142735898
0	1627	14.197246665408	0.008080302044
0	1632	14.205326967452	2.1116121e-05
0	1634	14.205348083573	0.068636103407
0	1642	14.27398418698	0.001489885255
0	1644	14.275474072235	0.051284022438
0	1654	14.326758094673	0.123015082975
0	1659	14.449773177648	0.017707551792
0	1664	14.46748072944	0.008870992586
0	1669	14.476351722026	0.02356645695
0	1674	14.499918178976	0.012990360567
0	1679	14.512908539543	0.223829446277
0	1685	14.73673798582	0.11578281261
0	1690	14.85252079843	0.021125090818
0	1695	14.873645889248	0.167145902488
0	1700	15.040791791736	0.021037440487
0	1705	15.061829232223	0.057029979247
0	1710	15.11885921147	0.047551026387
0	1715	15.166410237857	0.027719550208
0	1721	15.194129788065	0.048168161775
0	1726	15.24229794984	0.123627683355
0	1731	15.365925633195	0.000672168954
0	1733	15.366597802149	0.219236835606
0	1745	15.585834637755	0.042716620094
0	1750	15.628551257849	0.047129084906
0	1755	15.675680342755	0.075181752264
0	1760	15.750862095019	0.009341285813
0	1766	15.760203380832	0.149668833984
0	1773	15.909872214816	0.015146525369
0	1778	15.925018740185	0.060698156716
0	1785	15.985716896901	0.005156275096
0	1787	15.990873171997	0.006176548761
0	1792	15.997049720758	0.037110636898
0	1800	16.034160357656	0.014158047597
0	1805	16.048318405253	0.006115330637
0	1807	16.05443373589	0.027144949124
0	1815	16.081578685014	0.113763098817
0	1820	16.195341783831	0.049987903457
0	1825	16.245329687288	0.01269672684
0	1830	16.258026414128	0.005017004379
0	1832	16.263043418507	0.035835035541
0	1840	16.298878454048	0.024740167765
0	1846	16.323618621813	0.018282107174
0	1851	16.341900728987	0.019428009261
0	1856	16.361328738248	0.004606601787
0	1858	16.365935340035	0.177586997296
0	1869	16.543522337331	0.005262011319
0	1871	16.54878434865	0.173983438659
0	1880	16.722767787309	0.000456133121
0	1882	16.72322392043	0.068015341733
0	1891	16.791239262163	0.052434662316
0	1896	16.843673924479	0.036458337616
0	1901	16.880132262095	0.228212232805
0	1910	17.1083444949	0.00898504746
0	1915	17.11732954236	0.000594518348
0	1917	17.117924060708	0.149171975246
0	1927	17.267096035954	0.024074933542
0	1933	17.291170969496	0.127440878503
0	1938	17.418611847999	0.014324268405
0	1943	17.432936116404	0.107095942828
0	1948	17.540032059232	0.011086990937
0	1953	17.551119050169	0.002619357757
0	1955	17.553738407926	0.137183139093
0	1965	17.690921547019	0.074569460525
0	1971	17.765491007544	0.002642613636
0	1973	17.76813362118	0.005596611348
0	1978	17.773730232528	0.072300179849
0	1987	17.846030412377	0.117902707124
0	1992	17.963933119501	0.008695241081
0	1997	17.972628360582	0.044322822715
0	2002	18.016951183297	0.017826465686
0	2007	18.034777648983	0.221517832628
0	2012	18.256295481611	0.020615614631
0	2017	18.276911096242	0.02798865895
0	2023	18.304899755192	0.021770402865
0	2028	18.326670158057	0.04969234526
0	2034	18.376362503317	0.008460587018
0	2039	18.384823090335	0.074868297343
0	2044	18.459691387678	0.182290423486
0	2051	18.641981811164	0.015042923924
0	2056	18.657024735088	0.116568231538
0	2064	18.773592966626	0.050931827102
0	2071	18.824524793728	0.039468965034
0	2076	18.863993758762	0.087665408609
0	2083	18.951659167371	0.00971094204
0	2088	18.961370109411	0.036834608757
0	2093	18.998204718168	0.02280275859
0	2098	19.021007476758	0.02762451082
0	2103	19.048631987578	0.120347093584
0	2110	19.168979081162	0.037857949277
0	2115	19.206837030439	0.01749127089
0	2120	19.224328301329	0.145918310531
0	2128	19.37024661186	0.022508544047
0	2133	19.392755155907	0.361374833768
0	2140	19.754129989675	0.043762224414
0	2145	19.797892214089	0.055573264725
0	2150	19.853465478814	0.070697624415
0	2158	19.924163103229	0.077931570684
0	2163	20.002094673913	0.010959558228
0	2168	20.013054232141	0.199736433139
0	2174	20.21279066528	0.027587214132
0	2179	20.240377879412	0.007631832191
0	2184	20.248009711603	0.030662470704
0	2190	20.278672182307	0.00133193507
0	2192	20.280004117377	0.004446765559
0	2194	20.284450882936	0.068608283969
0	2205	20.353059166905	0.034016637877
0	2210	20.387075804782	0.047932267697
0	2216	20.435008072479	0.026348400641
0	2222	20.46135647312	0.005223861984
0	2224	20.466580335104	0.02106126423
0	2233	20.487641599334	0.03689704795
0	2238	20.524538647284	0.019545508525
0	2243	20.544084155809	0.035406135574
0	2248	20.579490291383	0.055222080752
0	2254	20.634712372135	0.016822123684
0	2260	20.651534495819	0.093144814558
0	2265	20.744679310377	0.014280111321
0	2270	20.758959421698	0.04316323671
0	2275	20.802122658408	0.009943843205
0	2280	20.812066501613	0.011957047441
0	2285	20.824023549054	0.043832239292
0	2292	20.867855788346	0.046240268275
0	2297	20.914096056621	0.008356985611
0	2302	20.922453042232	0.074709711495
0	2308	20.997162753727	0.062192468096
0	2313	21.059355221823	0.07496685691
0	2319	21.134322078733	0.097862046219
0	2324	21.232184124952	0.074428979839
0	2329	21.306613104791	0.057988446174
0	2335	21.364601550965	0.010767321902
0	2341	21.375368872867	0.015403056707
0	2346	21.390771929574	0.063702087247
0	2351	21.454474016821	0.025294616132
0	2356	21.479768632953	0.09739470622
0	2361	21.577163339173	0.035976202867
0	2366	21.61313954204	0.02014178049
0	2371	21.63328132253	0.021095292349
0	2376	21.654376614879	0.03312408627
0	2381	21.687500701149	0.039439126091
0	2386	21.72693982724	0.063860412947
0	2391	21.790800240187	0.057936706817
0	2396	21.848736947004	0.017245713447
0	2402	21.865982660451	0.017811816204
0	2407	21.883794476655	0.031158531231
0	2412	21.914953007886	0.012126374653
0	2417	21.927079382539	0.07402103861
0	2423	22.001100421149	0.077631329805
0	2429	22.078731750954	0.068736204295
0	2435	22.147467955249	0.07477175439
0	2440	22.222239709639	0.07954449092
0	2445	22.301784200559	0.002131074095
0	2447	22.303915274654	0.017202568852
0	2455	22.321117843506	0.051850282495
0	2460	22.372968126001	0.070832259592
0	2465	22.443800385593	0.00685936632
0	2467	22.450659751913	0.165711541581
0	2476	22.616371293494	0.039665229691
0	2481	22.656036523185	0.05672697503
0	2486	22.712763498215	0.017231915452
0	2491	22.729995413667	0.055265283535
0	2497	22.785260697202	0.087390512304
0	2503	22.872651209506	0.009673047776
0	2508	22.882324257282	0.005121151569
0	2510	22.887445408851	0.009789383016
0	2518	22.897234791867	0.113900432612
0	2526	23.011135224479	0.045253030012
0	2531	23.056388254491	0.020926692588
0	2536	23.077314947079	0.009602711363
0	2541	23.086917658442	0.007083092323
0	2543	23.094000750765	0.039357319049
0	2551	23.133358069814	0.030586004878
0	2556	23.163944074692	0.061510763417
0	2561	23.225454838109	0.00441084917
0	2563	23.229865687279	0.070450639729
0	2571	23.300316327008	0.067397276277
0	2576	23.367713603285	0.039975382091
0	2581	23.407688985376	0.022607228427
0	2586	23.430296213803	0.048972422377
0	2592	23.47926863618	0.020290345843
0	2597	23.499558982023	0.020904889008
0	2602	23.520463871031	0.005626231559
0	2604	23.52609010259	0.039302160664
0	2612	23.565392263254	0.010298691107
0	2617	23.575690954361	0.011392170032
0	2622	23.587083124393	0.036620270006
0	2627	23.623703394399	0.092331729718
0	2632	23.716035124117	0.005974227483
0	2634	23.7220093516	0.02684241192
0	2642	23.74885176352	0.033075215771
0	2647	23.781926979291	0.007479568034
0	2652	23.789406547325	0.134037594004
0	2658	23.923444141329	0.048370384196
0	2663	23.971814525525	0.025445971468
0	2668	23.997260496993	0.293185798713
0	2675	24.290446295706	0.009946454132
0	2680	24.300392749838	0.018807740492
0	2685	24.31920049033	0.081864110045
0	2691	24.401064600375	0.04211526523
0	2696	24.443179865605	0.054048756097
0	2702	24.497228621702	0.036435869407
0	2707	24.533664491109	0.04752277772
0	2712	24.581187268829	0.021449532011
0	2717	24.60263680084	0.006612733644
0	2719	24.609249534484	0.023404961418
0	2728	24.632654495902	0.021657866954
0	2733	24.654312362856	0.061032518742
0	2738	24.715344881598	0.032037206579
0	2744	24.747382088177	0.033599445769
0	2749	24.780981533946	0.023771741769
0	2754	24.804753275715	0.022194521425
0	2759	24.82694779714	0.012546532501
0	2764	24.839494329641	0.015725697337
0	2769	24.855220026978	0.012866068585
0	2774	24.868086095563	0.218255709233
0	2781	25.086341804796	0.007705842699
0	2786	25.094047647495	0.005826902682
0	2788	25.099874550177	0.065360319731
0	2797	25.165234869908	0.035602493025
0	2802	25.200837362933	0.006563075906
0	2805	25.207400438839	0.065956165448
0	2813	25.273356604287	0.019266801704
0	2818	25.292623405991	0.007799358457
0	2823	25.300422764448	0.024851036288
0	2828	25.325273800736	0.028403632859
0	2834	25.353677433595	0.001933986572
0	2836	25.355611420167	0.015899470563
0	2844	25.37151089073	0.008421600343
0	2850	25.379932491073	0.067890992791
0	2855	25.447823483864	0.009355590657
0	2860	25.457179074521	0.115074519546
0	2868	25.572253594067	0.073551716671
0	2875	25.645805310738	0.004232987479
0	2877	25.650038298217	0.013669142152
0	2885	25.663707440369	0.063580042188
0	2890	25.727287482557	0.068751915253
0	2898	25.79603939781	0.038620568171
0	2903	25.834659965981	0.02134676127
0	2908	25.856006727251	0.156341006197
0	2914	26.012347733448	0.054119239752
0	2919	26.0664669732	0.000152377162
0	2921	26.066619350362	0.053145947415
0	2931	26.119765297777	0.062034470925
0	2936	26.181799768702	0.013261855593
0	2942	26.195061624295	0.066149490966
0	2948	26.261211115261	0.027320461832
0	2953	26.288531577093	0.009668485972
0	2958	26.298200063065	0.056434533885
0	2964	26.35463459695	0.039952820309
0	2969	26.394587417259	0.046487201017
0	2975	26.441074618276	0.188131814495
0	2981	26.629206432771	0.046911546415
0	2986	26.676117979186	0.0548173646
0	2991	26.730935343786	0.002014202001
0	2993	26.732949545787	0.008979995203
0	2998	26.74192954099	0.117923898277
0	3007	26.859853439267	0.060099690243
0	3013	26.91995312951	0.109936656375
0	3019	27.029889785885	0.03548734888
0	3024	27.065377134765	0.009842201952
0	3029	27.075219336717	0.080932258245
0	3034	27.156151594962	0.024543268788
0	3039	27.18069486375	0.014111119516
0	3044	27.194805983266	0.11910013999
0	3049	27.313906123256	0.004216174437
0	3051	27.318122297693	0.030086004125
0	3059	27.348208301818	0.027356696903
0	3064	27.375564998721	0.028395655497
0	3069	27.403960654218	0.023753465078
0	3074	27.427714119296	0.06182691267
0	3079	27.489541031966	0.040523788517
0	3084	27.530064820483	0.008771397146
0	3089	27.538836217629	0.023319543389
0	3094	27.562155761018	0.099663861127
0	3100	27.661819622145	0.048379729826
0	3105	27.710199351971	0.000697978266
0	3107	27.710897330237	0.010300203913
0	3112	27.72119753415	0.003849085674
0	3114	27.725046619824	0.013089481257
0	3122	27.738136101081	0.023573494396
0	3130	27.761709595477	0.149389036213
0	3135	27.91109863169	0.014341690033
0	3140	27.925440321723	0.033646035549
0	3145	27.959086357272	0.035935901345
0	3151	27.995022258617	0.055367111911
0	3156	28.050389370528	0.007743895638
0	3158	28.058133266166	0.005082233793
0	3163	28.063215499959	0.051313023246
0	3171	28.114528523205	0.039701610901
0	3176	28.154230134106	0.038729305357
0	3182	28.192959439463	0.102838357279
0	3188	28.295797796742	0.088572605812
0	3193	28.384370402554	0.005649524274
0	3195	28.390019926828	0.015675635452
0	3203	28.40569556228	0.0591591431
0	3208	28.46485470538	0.009380117048
0	3213	28.474234822428	0.019205459328
0	3218	28.493440281756	0.037373068905
0	3224	28.530813350661	0.04395804472
0	3229	28.574771395381	0.013844058126
0	3234	28.588615453507	0.031237375228
0	3240	28.619852828735	0.03045998502
0	3245	28.650312813755	0.0497412123
0	3250	28.700054026055	0.006192180978
0	3252	28.706246207033	0.12375993836
0	3262	28.830006145393	0.045790370609
0	3267	28.875796516002	0.097858404489
0	3272	28.973654920491	0.090588383987
0	3278	29.064243304478	0.030803955405
0	3284	29.095047259883	0.121709867975
0	3292	29.216757127858	0.018970438577
0	3297	29.235727566435	0.150417646832
0	3304	29.386145213267	0.076742813286
0	3309	29.462888026553	0.043557428514
0	3315	29.506445455067	0.062050667965
0	3320	29.568496123032	0.036148402523
0	3325	29.604644525555	0.032596544512
0	3332	29.637241070067	0.074965586347
0	3337	29.712206656414	0.015379621651
0	3342	29.727586278065	0.055751922335
0	3347	29.7833382004	0.005357616543
0	3349	29.788695816943	0.008943627877
0	3354	29.79763944482	0.04367895228
0	3362	29.8413183971	0.027892224313
0	3368	29.869210621413	0.001079790175
0	3370	29.870290411588	0.008385008247
0	3375	29.878675419835	0.007201913447
0	3380	29.885877333282	0.041816431454
0	3389	29.927693764736	0.092946532023
0	3394	30.020640296759	0.035576056937
0	3399	30.056216353696	0.000760562325
0	3401	30.056976916021	0.030236536988
0	3410	30.087213453009	0.029423002996
0	3415	30.116636456005	0.23558920017
0	3423	30.352225656175	0.021196341964
0	3428	30.373421998139	0.115202584111
0	3434	30.48862458225	0.006475358597
0	3436	30.495099940847	0.008209886404
0	3441	30.503309827251	0.002500171745
0	3446	30.505809998996	0.046783203107
0	3454	30.552593202103	0.040423375836
0	3459	30.593016577939	0.032523958326
0	3464	30.625540536265	0.030999517425
0	3469	30.65654005369	0.088194895473
0	3477	30.744734949163	0.042083138314
0	3483	30.786818087477	0.132554283258
0	3488	30.919372370735	0.023272555394
0	3493	30.942644926129	0.088235950163
0	3498	31.030880876292	0.099173909338
0	3503	31.13005478563	0.001356589662
0	3505	31.131411375292	0.106248628059
0	3514	31.237660003351	0.11048699559
0	3522	31.348146998941	0.0376674792
0	3528	31.385814478141	0.008974188194
0	3533	31.394788666335	0.057974628103
0	3538	31.452763294438	0.020321198906
0	3543	31.473084493344	0.121834481491
0	3549	31.594918974835	0.023684614111
0	3554	31.618603588946	0.025099614117
0	3559	31.643703203063	0.085264668544
0	3565	31.728967871607	0.093007460023
0	3572	31.82197533163	0.011035643524
0	3577	31.833010975154	0.021518982571
0	3582	31.854529957725	0.009680818197
0	3587	31.864210775922	0.004949347001
0	3589	31.869160122923	0.244218102127
0	3598	32.11337822505	0.012273171142
0	3603	32.125651396192	0.002286426778
0	3605	32.12793782297	0.120573567686
0	3614	32.248511390656	0.018614735614
0	3619	32.26712612627	0.011283396155
0	3624	32.278409522425	0.02651601822
0	3629	32.304925540645	0.082070694541
0	3635	32.386996235186	0.012761599767
0	3640	32.399757834953	0.00614232173
0	3642	32.405900156683	0.015776847313
0	3650	32.421677003996	0.096245201428
0	3657	32.517922205424	0.00567062714
0	3659	32.523592832564	0.057009818121
0	3668	32.580602650685	0.083305880762
0	3673	32.663908531447	0.007043024136
0	3676	32.670951555583	0.01411682532
0	3685	32.685068380903	0.035171469015
0	3690	32.720239849918	0.050235843822
0	3695	32.77047569374	0.00951754767
0	3700	32.77999324141	0.022348576927
0	3705	32.802341818337	0.060437428505
0	3712	32.862779246842	0.000243727351
0	3714	32.863022974193	0.117737602784
0	3722	32.980760576977	0.01419917287
0	3727	32.994959749847	0.013446200087
0	3734	33.008405949934	0.088570555377
0	3740	33.096976505311	0.010570636946
0	3745	33.107547142257	0.026480066289
0	3750	33.134027208546	0.017987601303
0	3755	33.152014809849	0.004710841318
0	3757	33.156725651167	0.009707906317
0	3762	33.166433557484	0.183921711801
0	3772	33.350355269285	0.049199647629
0	3777	33.399554916914	0.052829715892
0	3782	33.452384632806	0.121129184294
0	3787	33.5735138171	0.053378301119
0	3793	33.626892118219	0.000462850758
0	3795	33.627354968977	0.131219658743
0	3804	33.75857462772	0.04050415192
0	3810	33.79907877964	0.135170016022
0	3815	33.934248795662	0.003285873675
0	3817	33.937534669337	0.105291979751
0	3825	34.042826649088	0.162744769843
0	3832	34.205571418931	0.02566855247
0	3837	34.231239971401	0.008171984238
0	3839	34.239411955639	0.01635231632
0	3847	34.255764271959	0.067277701832
0	3853	34.323041973791	0.032785344636
0	3859	34.355827318427	0.024799796403
0	3864	34.38062711483	0.070697839601
0	3869	34.451324954431	0.033535885407
0	3874	34.484860839838	0.035553601934
0	3879	34.520414441772	0.065189607193
0	3885	34.585604048965	0.023522041308
0	3892	34.609126090273	0.071136780242
0	3898	34.680262870515	0.045534281463
0	3903	34.725797151978	0.015031558049
0	3908	34.740828710027	0.05138391131
0	3915	34.792212621337	0.06710376047
0	3920	34.859316381807	0.192054567271
0	3926	35.051370949078	0.055079467441
0	3931	35.106450416519	0.048582006081
0	3938	35.1550324226	0.028043668031
0	3943	35.183076090631	0.024994320223
0	3949	35.208070410854	0.006578390174
0	3951	35.214648801028	0.136544226834
0	3961	35.351193027862	0.017673750604
0	3966	35.368866778466	0.065804982298
0	3971	35.434671760764	0.102658796759
0	3976	35.537330557523	0.028155938466
0	3981	35.565486495989	0.064315318202
0	3986	35.629801814191	0.030764616241
0	3991	35.660566430432	0.066422580949
0	3996	35.726989011381	0.335873580227
0	4003	36.062862591608	0.027873600936
0	4008	36.090736192544	0.165656826691
0	4015	36.256393019235	0.205872043181
0	4023	36.462265062416	0.000327047309
0	4025	36.462592109725	0.01736580033
0	4033	36.479957910055	0.093525580674
0	4039	36.573483490729	0.225845369083
0	4047	36.799328859812	0.022508570818
0	4052	36.82183743063	0.013447515174
0	4057	36.835284945804	0.025315675545
0	4062	36.860600621349	0.086866394631
0	4068	36.94746701598	0.017439565285
0	4073	36.964906581265	0.055554752934
0	4078	37.020461334199	0.047699131727
0	4083	37.068160465926	0.055620441708
0	4088	37.123780907634	0.009717819218
0	4093	37.133498726852	0.00847832884
0	4098	37.141977055692	0.011683807013
0	4103	37.153660862705	0.039171439148
0	4109	37.192832301853	0.012185698307
0	4114	37.20501800016	0.004508422152
0	4116	37.209526422312	0.041211429858
0	4124	37.25073785217	0.0803484824
0	4129	37.33108633457	0.005439838795
0	4131	37.336526173365	0.098435436058
0	4139	37.434961609423	0.018649361791
0	4144	37.453610971214	0.016939494576
0	4149	37.47055046579	0.082222583296
0	4154	37.552773049086	0.00804208439
0	4156	37.560815133476	0.033280011969
0	4164	37.594095145445	0.011669872996
0	4169	37.605765018441	0.155877278091
0	4178	37.761642296532	0.006414372157
0	4180	37.768056668689	0.062685648012
0	4189	37.830742316701	0.011889578876
0	4194	37.842631895577	0.006122243988
0	4196	37.848754139565	0.145687640549
0	4206	37.994441780114	0.029697844345
0	4211	38.024139624459	0.045862675213
0	4216	38.070002299672	0.037408632519
0	4221	38.107410932191	0.072637179099
0	4226	38.18004811129	0.113330435014
0	4233	38.293378546304	0.01620453788
0	4238	38.309583084184	0.126444905871
0	4245	38.436027990055	0.014728243764
0	4250	38.450756233819	0.00273778771
0	4252	38.453494021529	0.008666251508
0	4258	38.462160273037	0.120231260909
0	4267	38.582391533946	0.076042994888
0	4272	38.658434528834	0.05840993039
0	4278	38.716844459224	0.009632689931
0	4283	38.726477149155	0.042717561236
0	4288	38.769194710391	0.04452972643
0	4293	38.813724436821	0.125251354264
0	4298	38.938975791085	0.005256544804
0	4300	38.944232335889	0.025962267439
0	4308	38.970194603328	0.019480399937
0	4313	38.989675003265	0.055805820057
0	4319	39.045480823322	0.067058913419
0	4324	39.112539736741	0.087287400941
0	4329	39.199827137682	0.016693940817
0	4334	39.216521078499	0.084643248083
0	4340	39.301164326582	0.095753522982
0	4346	39.396917849564	0.041090243684
0	4352	39.438008093248	0.090070249222
0	4357	39.52807834247	0.041013771836
0	4363	39.569092114306	0.035953874453
0	4368	39.605045988759	0.097600860384
0	4374	39.702646849143	0.165080394297
0	4381	39.86772724344	0.011504293454
0	4386	39.879231536894	0.026519446143
0	4391	39.905750983037	0.062893459715
0	4397	39.968644442752	0.054434336138
0	4403	40.02307877889	0.084606080764
0	4409	40.107684859654	0.078172771201
0	4414	40.185857630855	0.006350578731
0	4416	40.192208209586	0.179561166138
0	4425	40.371769375724	0.094415335474
0	4430	40.466184711198	0.024410843373
0	4435	40.490595554571	0.006689272529
0	4437	40.4972848271	0.019161905853
0	4445	40.516446732953	0.002760540111
0	4447	40.519207273064	0.023574997671
0	4455	40.542782270735	0.031803444676
0	4460	40.574585715411	0.05130408603
0	4465	40.625889801441	0.13964009718
0	4471	40.765529898621	0.085698128525
0	4477	40.851228027146	0.147383606686
0	4483	40.998611633832	0.026448959406
0	4488	41.025060593238	0.044187910625
0	4493	41.069248503863	0.002865262493
0	4495	41.072113766356	0.083868599939
0	4505	41.155982366295	0.063983548165
0	4511	41.21996591446	0.014467811574
0	4516	41.234433726034	0.069007269969
0	4522	41.303440996003	0.051239972117
0	4529	41.35468096812	0.00430977299
0	4531	41.35899074111	0.009062927203
0	4536	41.368053668313	0.167908930883
0	4546	41.535962599196	0.014606108954
0	4551	41.55056870815	0.059958304766
0	4557	41.610527012916	0.133940715284
0	4563	41.7444677282	0.016084703284
0	4568	41.760552431484	0.113812548411
0	4573	41.874364979895	0.001064118367
0	4575	41.875429098262	0.067915738957
0	4583	41.943344837219	0.012620312067
0	4588	41.955965149286	0.032075516797
0	4593	41.988040666083	0.05055390172
0	4598	42.038594567803	0.106242995546
0	4606	42.144837563349	0.115648138976
0	4611	42.260485702325	0.00935859302
0	4616	42.269844295345	0.0468017049
0	4621	42.316646000245	0.035450387715
0	4627	42.35209638796	0.018665405842
0	4632	42.370761793802	0.045712222941
0	4638	42.416474016743	0.007513704893
0	4640	42.423987721636	0.001897761979
0	4645	42.425885483615	0.014481813466
0	4653	42.440367297081	0.084515663043
0	4658	42.524882960124	0.004035319262
0	4660	42.528918279386	0.016535761221
0	4668	42.545454040607	0.011913178938
0	4673	42.557367219545	0.129714489789
0	4679	42.687081709334	0.028049078263
0	4685	42.715130787597	0.135183916554
0	4691	42.850314704151	0.038914647384
0	4697	42.889229351535	0.077515427007
0	4704	42.966744778542	0.038142704204
0	4709	43.004887482746	0.087697269839
0	4715	43.092584752585	0.016827832477
0	4720	43.109412585062	0.018053009349
0	4725	43.127465594411	0.088640634222
0	4730	43.216106228633	0.008631448245
0	4736	43.224737676878	0.023674750087
0	4742	43.248412426965	0.022820794825
0	4747	43.27123322179	0.029311709784
0	4752	43.300544931574	0.024982374044
0	4758	43.325527305618	0.071028323409
0	4763	43.396555629027	0.137313720886
0	4770	43.533869349913	0.027319028237
0	4775	43.56118837815	0.088562648049
0	4782	43.649751026199	0.010542513921
0	4787	43.66029354012	0.091782429081
0	4793	43.752075969201	0.038386222587
0	4799	43.790462191788	0.059109773279
0	4804	43.849571965067	0.002789946698
0	4806	43.852361911765	0.079954006099
0	4814	43.932315917864	0.011533750467
0	4819	43.943849668331	0.031234199219
0	4824	43.97508386755	0.014381999778
0	4829	43.989465867328	0.115085374926
0	4837	44.104551242254	0.177697109843
0	4844	44.282248352097	0.175915198855
0	4851	44.458163550952	0.080960967171
0	4857	44.539124518123	0.026482572611
0	4862	44.565607090734	0.027915423841
0	4867	44.593522514575	0.118005325601
0	4872	44.711527840176	0.007136083976
0	4874	44.718663924152	0.062340919172
0	4883	44.781004843324	0.057267527921
0	4889	44.838272371245	0.051360698071
0	4894	44.889633069316	0.03214667372
0	4900	44.921779743036	0.037307475026
0	4905	44.959087218062	0.025077177195
0	4910	44.984164395257	0.14431178747
0	4915	45.128476182727	0.080166570336
0	4920	45.208642753063	0.022512603141
0	4925	45.231155356204	0.005041451285
0	4927	45.236196807489	0.007534780514
0	4932	45.243731588003	0.079160198962
0	4941	45.322891786965	0.003108894963
0	4943	45.326000681928	0.029190685757
0	4951	45.355191367685	0.082541551377
0	4956	45.437732919062	0.00264869531
0	4958	45.440381614372	0.038591685953
0	4966	45.478973300325	0.080933172049
0	4974	45.559906472374	0.013675983721
0	4980	45.573582456095	0.01055118474
0	4985	45.584133640835	0.020941431972
0	4990	45.605075072807	0.011768338175
0	4995	45.616843410982	0.053596912945
0	5001	45.670440323927	0.010311234241
0	5006	45.680751558168	0.069037841729
0	5011	45.749789399897	0.021144369842
0	5016	45.770933769739	0.004461214256
0	5018	45.775394983995	0.000407464825
0	5020	45.77580244882	0.048673599879
0	5031	45.824476048699	0.006942946123
0	5033	45.831418994822	0.046330842513
0	5042	45.877749837335	0.04535655965
0	5047	45.923106396985	0.079283892987
0	5053	46.002390289972	0.011694849111
0	5058	46.014085139083	0.012699552519
0	5063	46.026784691602	0.020363639949
0	5068	46.047148331551	0.008810073199
0	5073	46.05595840475	0.119373138295
0	5079	46.175331543045	0.069428313193
0	5084	46.244759856238	0.023830463455
0	5089	46.268590319693	0.024540997729
0	5094	46.293131317422	0.100784441888
0	5099	46.39391575931	0.006479187353
0	5101	46.400394946663	0.000941052179
0	5103	46.401335998842	0.028785864762
0	5114	46.430121863604	0.108919787005
0	5120	46.539041650609	0.080031458197
0	5126	46.619073108806	0.02150285757
0	5131	46.640575966376	0.021219083397
0	5136	46.661795049773	0.011267600288
0	5141	46.673062650061	0.011086475725
0	5146	46.684149125786	0.172765536166
0	5156	46.856914661952	0.072540578741
0	5163	46.929455240693	0.020059087807
0	5168	46.9495143285	0.003396137384
0	5170	46.952910465884	0.104540556369
0	5178	47.057451022253	0.005023393867
0	5180	47.06247441612	0.09814287275
0	5188	47.16061728887	0.001394216713
0	5190	47.162011505583	0.003528401499
0	5192	47.165539907082	0.080895715099
0	5205	47.246435622181	0.054049644495
0	5212	47.300485266676	0.021803395221
0	5217	47.322288661897	0.024333683181
0	5223	47.346622345078	0.011551729807
0	5228	47.358174074885	0.024008298609
0	5233	47.382182373494	0.000127873383
0	5235	47.382310246877	0.029736259475
0	5244	47.412046506352	0.015589400494
0	5249	47.427635906846	0.022745643521
0	5255	47.450381550367	0.007679229429
0	5257	47.458060779796	0.048091361176
0	5265	47.506152140972	0.10380733602
0	5270	47.609959476992	0.02245642023
0	5275	47.632415897222	0.005927114505
0	5277	47.638343011727	0.063973182317
0	5285	47.702316194044	0.072457177982
0	5290	47.774773372026	0.018492667433
0	5296	47.793266039459	0.03637676018
0	5301	47.829642799639	0.025669807101
0	5306	47.85531260674	0.002006215243
0	5308	47.857318821983	0.006704147683
0	5313	47.864022969666	0.011104547493
0	5318	47.875127517159	0.09163479761
0	5326	47.966762314769	0.02100049903
0	5331	47.987762813799	0.06616581407
0	5336	48.053928627869	0.022684311236
0	5342	48.076612939105	0.017017292229
0	5347	48.093630231334	0.017624980487
0	5352	48.111255211821	0.036263547351
0	5357	48.147518759172	0.05137073741
0	5362	48.198889496582	0.058261316756
0	5367	48.257150813338	0.004828286595
0	5370	48.261979099933	0.082287972926
0	5379	48.344267072859	0.004324254144
0	5381	48.348591327003	0.03252651357
0	5389	48.381117840573	0.038730863305
0	5394	48.419848703878	0.078844025329
0	5400	48.498692729207	0.01852725736
0	5405	48.517219986567	0.055586317164
0	5411	48.572806303731	0.055682012548
0	5417	48.628488316279	0.15182030926
0	5425	48.780308625539	0.016554174463
0	5430	48.796862800002	0.018733446917
0	5435	48.815596246919	0.056865814037
0	5440	48.872462060956	0.077227638499
0	5445	48.949689699455	0.105991072052
0	5451	49.055680771507	0.061130626696
0	5456	49.116811398203	0.021277405375
0	5462	49.138088803578	0.025538036965
0	5467	49.163626840543	0.014863397061
0	5472	49.178490237604	0.005070121372
0	5474	49.183560358976	0.068437217562
0	5482	49.251997576538	0.00453833245
0	5484	49.256535908988	0.007368243737
0	5489	49.263904152725	0.04929376538
0	5497	49.313197918105	0.037027865926
0	5502	49.350225784031	0.011105793383
0	5508	49.361331577414	0.129541080595
0	5513	49.490872658009	0.040570724311
0	5518	49.53144338232	0.017265334287
0	5523	49.548708716607	0.158965586858
0	5528	49.707674303465	0.069485902215
0	5534	49.77716020568	0.071229275203
0	5539	49.848389480883	0.026082149777
0	5544	49.87447163066	0.027984537729
0	5549	49.902456168389	0.091183240632
0	5556	49.993639409021	0.058205444811
0	5561	50.051844853832	0.068511389068
0	5566	50.1203562429	0.033191714054
0	5571	50.153547956954	0.001358041404
0	5573	50.154905998358	0.086543583879
0	5581	50.241449582237	0.112272222026
0	5586	50.353721804263	0.020707635609
0	5591	50.374429439872	0.009229736063
0	5596	50.383659175935	0.048911701432
0	5601	50.432570877367	0.106110820517
0	5606	50.538681697884	0.006962316185
0	5608	50.545644014069	0.025180308114
0	5617	50.570824322183	0.007142616881
0	5619	50.577966939064	0.002691364317
0	5624	50.580658303381	0.188341814543
0	5634	50.769000117924	0.107104076452
0	5642	50.876104194376	0.040191583086
0	5648	50.916295777462	0.050072475255
0	5653	50.966368252717	0.030627923324
0	5659	50.996996176041	0.017109957489
0	5664	51.01410613353	0.04698041845
0	5671	51.06108655198	0.101051697032
0	5677	51.162138249012	0.057894951811
0	5682	51.220033200823	0.014993176777
0	5687	51.2350263776	0.002819977863
0	5689	51.237846355463	0.019971821073
0	5697	51.257818176536	0.168934368864
0	5705	51.4267525454	0.040379569714
0	5710	51.467132115114	0.058203708944
0	5716	51.525335824058	0.046049292004
0	5721	51.571385116062	0.063651800193
0	5727	51.635036916255	0.031790833012
0	5733	51.666827749267	0.014537101129
0	5738	51.681364850396	0.07839186445
0	5743	51.759756714846	0.044805252436
0	5748	51.804561967282	0.038954629518
0	5754	51.8435165968	0.080068865784
0	5759	51.923585462584	0.054285286886
0	5764	51.97787074947	0.081650887138
0	5770	52.059521636608	0.004096185874
0	5772	52.063617822482	0.070662649851
0	5780	52.134280472333	0.117440681269
0	5785	52.251721153602	0.004608804215
0	5787	52.256329957817	0.004216984938
0	5792	52.260546942755	0.017497181007
0	5800	52.278044123762	0.058517359089
0	5805	52.336561482851	0.138884549987
0	5810	52.475446032838	0.048081620699
0	5816	52.523527653537	0.03180062118
0	5821	52.555328274717	0.014827407653
0	5826	52.57015568237	0.064853204794
0	5831	52.635008887164	0.413113948967
0	5838	53.048122836131	0.027081160096
0	5843	53.075203996227	0.098051699488
0	5849	53.173255695715	0.013849415368
0	5854	53.187105111083	0.032290460627
0	5861	53.21939557171	0.069235157174
0	5868	53.288630728884	0.332745299251
0	5874	53.621376028135	0.023036010425
0	5879	53.64441203856	0.02582686607
0	5884	53.67023890463	0.012288666442
0	5889	53.682527571072	0.028540306509
0	5894	53.711067877581	0.013707095527
0	5899	53.724774973108	0.058309245362
0	5904	53.78308421847	0.015260264515
0	5910	53.798344482985	0.015335882624
0	5915	53.813680365609	0.032940638849
0	5920	53.846621004458	0.029091540702
0	5925	53.87571254516	0.04340021917
0	5930	53.91911276433	0.055709946395
0	5936	53.974822710725	0.12462791569
0	5941	54.099450626415	0.013909352014
0	5947	54.113359978429	0.121382246398
0	5955	54.234742224827	0.029533648215
0	5960	54.264275873042	0.002214612658
0	5962	54.2664904857	0.005059076302
0	5964	54.271549562002	0.028106285918
0	5975	54.29965584792	0.149208586783
0	5983	54.448864434703	0.018331731878
0	5988	54.467196166581	0.047557029233
0	5993	54.514753195814	0.007728119219
0	5998	54.522481315033	0.00755385448
0	6000	54.530035169513	0.111693657206
0	6009	54.641728826719	0.04061688951
0	6014	54.682345716229	0.058888740427
0	6019	54.741234456656	0.003856299491
0	6021	54.745090756147	0.035418683096
0	6029	54.780509439243	0.029799604557
0	6034	54.8103090438	0.024363811399
0	6039	54.834672855199	0.090136780758
0	6045	54.924809635957	0.003690246208
0	6047	54.928499882165	0.052016757322
0	6056	54.980516639487	0.022294729331
0	6061	55.002811368818	0.025353434857
0	6066	55.028164803675	0.008911131678
0	6071	55.037075935353	0.051706110413
0	6077	55.088782045766	0.009751920121
0	6082	55.098533965887	0.131201059356
0	6088	55.229735025243	0.006863159319
0	6091	55.236598184562	0.012860264973
0	6099	55.249458449535	0.173647004494
0	6106	55.423105454029	0.113668362963
0	6112	55.536773816992	0.054297701087
0	6117	55.591071518079	0.014718878768
0	6122	55.605790396847	0.064601751505
0	6129	55.670392148352	0.048621370046
0	6135	55.719013518398	0.032682293328
0	6140	55.751695811726	0.008001598459
0	6142	55.759697410185	0.024218673443
0	6150	55.783916083628	0.034038864086
0	6156	55.817954947714	0.017041143725
0	6161	55.834996091439	0.147606027151
0	6168	55.98260211859	0.010865613163
0	6173	55.993467731753	0.029957794204
0	6179	56.023425525957	0.134445227695
0	6185	56.157870753652	0.06517798949
0	6190	56.223048743142	0.091294329463
0	6195	56.314343072605	0.032472235551
0	6202	56.346815308156	0.00851075557
0	6207	56.355326063726	0.00292121679
0	6209	56.358247280516	0.037202021019
0	6218	56.395449301535	0.032735401506
0	6223	56.428184703041	0.046839919406
0	6229	56.475024622447	0.015333221429
0	6234	56.490357843876	0.064534420767
0	6240	56.554892264643	0.178204884758
0	6246	56.733097149401	0.030029949465
0	6251	56.763127098866	0.077496462065
0	6256	56.840623560931	0.008216063707
0	6258	56.848839624638	0.107814671944
0	6266	56.956654296582	0.022372623078
0	6271	56.97902691966	0.043231310186
0	6276	57.022258229846	0.13869223382
0	6285	57.160950463666	0.19321950191
0	6293	57.354169965576	0.001229825043
0	6295	57.355399790619	0.113658616853
0	6304	57.469058407472	0.017752940023
0	6310	57.486811347495	0.030993259409
0	6315	57.517804606904	0.059480303587
0	6321	57.577284910491	0.04520129181
0	6326	57.622486202301	0.064865903553
0	6332	57.687352105854	0.017584609038
0	6337	57.704936714892	0.029462933019
0	6344	57.734399647911	0.027191887302
0	6349	57.761591535213	0.017289380859
0	6354	57.778880916072	0.002415553631
0	6356	57.781296469703	0.033924090718
0	6365	57.815220560421	0.064715832176
0	6370	57.879936392597	0.18250934912
0	6377	58.062445741717	0.021020012371
0	6382	58.083465754088	0.022039257643
0	6387	58.105505011731	0.028905090516
0	6392	58.134410102247	0.078456639809
0	6397	58.212866742056	0.025359551101
0	6403	58.238226293157	0.007421694022
0	6405	58.245647987179	0.099187788809
0	6414	58.344835775988	0.055223444294
0	6419	58.400059220282	0.016259803974
0	6425	58.416319024256	0.050842330393
0	6430	58.467161354649	0.047259231142
0	6436	58.514420585791	0.022810836748
0	6441	58.537231422539	0.012367465114
0	6446	58.549598887653	0.079474562513
0	6451	58.629073450166	0.018294047348
0	6456	58.647367497514	0.02507894129
0	6462	58.672446438804	0.066289739051
0	6468	58.738736177855	0.075915614512
0	6473	58.814651792367	0.037101761391
0	6478	58.851753553758	0.012668977322
0	6483	58.86442253108	0.027149838931
0	6488	58.891572370011	0.05085915764
0	6493	58.942431527651	0.015292559857
0	6498	58.957724087508	0.12083129372
0	6503	59.078555381228	0.00334769484
0	6505	59.081903076068	0.069736584729
0	6513	59.151639660797	0.001632333581
0	6515	59.153271994378	0.067991204027
0	6523	59.221263198405	0.086935113164
0	6528	59.308198311569	0.004801431077
0	6530	59.312999742646	0.058077462033
0	6539	59.371077204679	0.099576446007
0	6544	59.470653650686	0.072423048051
0	6550	59.543076698737	0.003357776946
0	6552	59.546434475683	0.048113793633
0	6560	59.594548269316	0.00677477711
0	6562	59.601323046426	0.00292426285
0	6567	59.604247309276	0.031924297156
0	6575	59.636171606432	0.056483048957
0	6581	59.692654655389	0.007623040615
0	6583	59.700277696004	0.008170894325
0	6591	59.708448590329	0.062307681488
0	6596	59.770756271817	0.167668461323
0	6601	59.93842473314	0.032821444295
0	6606	59.971246177435	0.152181506847
0	6612	60.123427684282	0.009053065608
0	6617	60.13248074989	0.165369179505
0	6624	60.297849929395	0.004680475146
0	6626	60.302530404541	0.028496443706
0	6634	60.331026848247	0.002365111159
0	6636	60.333391959406	0.051713991715
0	6644	60.385105951121	0.059017649953
0	6649	60.444123601074	0.004090431094
0	6651	60.448214032168	0.010993897011
0	6656	60.459207929179	0.109123665709
0	6665	60.568331594888	0.204342343532
0	6671	60.77267393842	0.064840764018
0	6676	60.837514702438	0.052314067122
0	6681	60.88982876956	0.019413590884
0	6686	60.909242360444	0.068226653497
0	6692	60.977469013941	0.035391543885
0	6697	61.012860557826	0.031213645639
0	6703	61.044074203465	0.010959420211
0	6708	61.055033623676	0.016089718652
0	6713	61.071123342328	0.049659865229
0	6718	61.120783207557	0.002304268608
0	6720	61.123087476165	0.225629608853
0	6729	61.348717085018	0.067851596927
0	6735	61.416568681945	0.015958025812
0	6740	61.432526707757	0.117304057769
0	6746	61.549830765526	0.002869729893
0	6748	61.552700495419	0.015172751786
0	6756	61.567873247205	0.004965071446
0	6758	61.572838318651	0.026013785004
0	6766	61.598852103655	0.033942090737
0	6771	61.632794194392	0.019322630174
0	6776	61.652116824566	0.108199359274
0	6781	61.76031618384	0.01171211992
0	6786	61.77202830376	0.002570778052
0	6788	61.774599081812	0.017753798419
0	6796	61.792352880231	0.034476667263
0	6801	61.826829547494	0.001384035003
0	6803	61.828213582497	0.027173542317
0	6811	61.855387124814	0.008370156959
0	6816	61.863757281773	0.057300536131
0	6821	61.921057817904	0.08847517578
0	6827	62.009532993684	0.048382940881
0	6832	62.057915934565	0.019441684521
0	6838	62.077357619086	0.04601354487
0	6844	62.123371163956	0.015211994484
0	6849	62.13858315844	0.035679109099
0	6854	62.174262267539	0.056496059987
0	6859	62.230758327526	0.037026708837
0	6864	62.267785036363	0.245827229691
0	6872	62.513612266054	0.005040487549
0	6874	62.518652753603	0.10570220378
0	6882	62.624354957383	0.03134314765
0	6888	62.655698105033	0.042334882222
0	6893	62.698032987255	0.015609818236
0	6898	62.713642805491	0.074895451939
0	6903	62.78853825743	0.024437154207
0	6908	62.812975411637	0.066823428844
0	6913	62.879798840481	0.04297461002
0	6918	62.922773450501	0.020768389937
0	6923	62.943541840438	0.076714683523
0	6929	63.020256523961	0.038791510888
0	6934	63.059048034849	0.059043965191
0	6939	63.11809200004	0.040646997052
0	6944	63.158738997092	0.013934869164
0	6949	63.172673866256	0.02277175841
0	6955	63.195445624666	0.101034593759
0	6962	63.296480218425	0.129088751593
0	6967	63.425568970018	0.039842861613
0	6972	63.465411831631	0.025154549356
0	6978	63.490566380987	0.008721388544
0	6983	63.499287769531	0.031382996436
0	6988	63.530670765967	0.050580983464
0	6993	63.581251749431	0.070941035025
0	6998	63.652192784456	0.106000719645
0	7005	63.758193504101	0.032301709587
0	7011	63.790495213688	0.044209862524
0	7016	63.834705076212	0.025853361092
0	7021	63.860558437304	0.092771551763
0	7026	63.953329989067	0.001049568618
0	7028	63.954379557685	0.096065857823
0	7037	64.050445415508	0.037664913186
0	7043	64.088110328694	0.098629138496
0	7048	64.18673946719	0.082556375584
0	7054	64.269295842774	0.004436321861
0	7056	64.273732164635	0.095732966946
0	7064	64.369465131581	0.022099227613
0	7069	64.391564359194	0.025376239648
0	7074	64.416940598842	0.011732240789
0	7079	64.428672839631	0.02196747022
0	7084	64.450640309851	0.204828442844
0	7089	64.655468752695	0.062594275028
0	7094	64.718063027723	0.055719212858
0	7099	64.773782240581	0.011703778065
0	7104	64.785486018646	0.120347801847
0	7110	64.905833820493	0.022755341175
0	7115	64.928589161668	0.040603174706
0	7120	64.969192336374	0.013764100778
0	7125	64.982956437152	0.015426678043
0	7130	64.998383115195	0.010466345522
0	7135	65.008849460717	0.005796389337
0	7137	65.014645850054	0.046379242547
0	7146	65.061025092601	0.030226516736
0	7152	65.091251609337	0.08602417456
0	7157	65.177275783897	0.047346951681
0	7164	65.224622735578	0.022204474364
0	7169	65.246827209942	0.059159261795
0	7175	65.305986471737	0.021675311296
0	7180	65.327661783033	0.192223910628
0	7190	65.519885693661	1.164551e-06
0	7192	65.519886858212	0.00556114651
0	7194	65.525448004722	0.011819640521
0	7202	65.537267645243	0.027404691136
0	7210	65.564672336379	0.016437895606
0	7215	65.581110231985	0.122806131173
0	7221	65.703916363158	0.079323848805
0	7226	65.783240211963	0.036871539296
0	7232	65.820111751259	0.049829089305
0	7237	65.869940840564	0.057120403805
0	7242	65.927061244369	0.109294707845
0	7247	66.036355952214	0.094413616213
0	7255	66.130769568427	0.120575421757
0	7261	66.251344990184	0.035484208334
0	7266	66.286829198518	0.004208308388
0	7268	66.291037506906	0.087410974866
0	7276	66.378448481772	0.096031938698
0	7283	66.47448042047	0.012146444555
0	7288	66.486626865025	0.132900302085
0	7293	66.61952716711	0.061137562602
0	7299	66.680664729712	0.162226240298
0	7304	66.84289097001	0.020212030739
0	7309	66.863103000749	0.002586597289
0	7311	66.865689598038	0.081182816734
0	7319	66.946872414772	0.146926820291
0	7324	67.093799235063	0.021414478703
0	7330	67.115213713766	0.007976834527
0	7332	67.123190548293	0.05990102467
0	7341	67.183091572963	0.146552594601
0	7346	67.329644167564	0.087433332036
0	7351	67.4170774996	0.075847214751
0	7356	67.492924714351	0.092212234203
0	7362	67.585136948554	0.003485090219
0	7364	67.588622038773	0.014257105644
0	7373	67.602879144417	0.011591079533
0	7380	67.61447022395	0.269646234525
0	7387	67.884116458475	0.001165142481
0	7389	67.885281600956	0.000214280741
0	7391	67.885495881697	0.03819912424
0	7402	67.923695005937	0.026122353646
0	7407	67.949817359583	0.01127759534
0	7412	67.961094954923	0.020022589947
0	7417	67.98111754487	0.054461471524
0	7422	68.035579016394	0.154275396845
0	7428	68.189854413239	0.012447932099
0	7433	68.202302345338	0.041679774791
0	7438	68.243982120129	0.033629268379
0	7444	68.277611388508	0.068121217351
0	7450	68.345732605859	0.028664979272
0	7456	68.374397585131	0.02251546914
0	7461	68.396913054271	0.011002813168
0	7466	68.407915867439	0.010283321709
0	7471	68.418199189148	0.034611222111
0	7476	68.452810411259	0.001348782862
0	7478	68.454159194121	0.08711604311
0	7486	68.541275237231	0.006948887886
0	7488	68.548224125117	0.139054999949
0	7498	68.687279125066	0.02101724631
0	7503	68.708296371376	0.052291510224
0	7508	68.7605878816	0.065010607447
0	7514	68.825598489047	0.025838794027
0	7519	68.851437283074	0.031059118493
0	7525	68.882496401567	0.058491230112
0	7531	68.940987631679	0.060378935091
0	7536	69.00136656677	0.02092427231
0	7541	69.02229083908	0.043423684284
0	7547	69.065714523364	0.067343489976
0	7552	69.13305801334	0.020847928243
0	7557	69.153905941583	0.034448539894
0	7562	69.188354481477	0.033396493433
0	7567	69.22175097491	0.048450256591
0	7572	69.270201231501	0.034352496571
0	7577	69.304553728072	0.042801209489
0	7582	69.347354937561	0.00933207545
0	7587	69.356687013011	0.032189162484
0	7593	69.388876175495	0.035479329302
0	7599	69.424355504797	0.015181787438
0	7604	69.439537292235	0.128748902627
0	7609	69.568286194862	0.017029994232
0	7614	69.585316189094	0.047836772855
0	7620	69.633152961949	0.03613571255
0	7627	69.669288674499	0.088725731359
0	7634	69.758014405858	0.011971950911
0	7639	69.769986356769	0.151338603222
0	7645	69.921324959991	0.053767170184
0	7650	69.975092130175	0.000235464996
0	7652	69.975327595171	0.01155123202
0	7657	69.986878827191	0.054076900145
0	7665	70.040955727336	0.061853330927
0	7671	70.102809058263	0.024249346932
0	7676	70.127058405195	0.036819431037
0	7682	70.163877836232	0.117125161571
0	7687	70.281002997803	0.090093007488
0	7692	70.371096005291	0.046900227473
0	7698	70.417996232764	0.21627909646
0	7704	70.634275329224	0.022718272472
0	7710	70.656993601696	0.000557734943
0	7712	70.657551336639	0.006275974635
0	7714	70.663827311274	0.007877763106
0	7720	70.67170507438	0.002561603718
0	7725	70.674266678098	0.064825615308
0	7737	70.739092293406	0.063180607837
0	7743	70.802272901243	0.030471942215
0	7748	70.832744843458	0.148695003884
0	7754	70.981439847342	0.024540420757
0	7760	71.005980268099	0.025545300853
0	7765	71.031525568952	0.013405179553
0	7770	71.044930748505	0.016574713384
0	7775	71.061505461889	0.003906098604
0	7777	71.065411560493	0.003924013277
0	7782	71.06933557377	0.057817645094
0	7791	71.127153218864	0.06889548779
0	7796	71.196048706654	0.027590217583
0	7801	71.223638924237	0.006357551895
0	7803	71.229996476132	0.058097859979
0	7811	71.288094336111	0.040428867517
0	7816	71.328523203628	0.137499682263
0	7821	71.466022885891	0.038891732957
0	7826	71.504914618848	0.002278090146
0	7828	71.507192708994	0.015958956363
0	7836	71.523151665357	0.183566647137
0	7842	71.706718312494	0.100998195661
0	7847	71.807716508155	0.012719508291
0	7852	71.820436016446	0.029113385174
0	7857	71.84954940162	0.019223931466
0	7862	71.868773333086	0.030779144881
0	7867	71.899552477967	0.05389332539
0	7872	71.953445803357	0.084340510477
0	7878	72.037786313834	0.006569564609
0	7880	72.044355878443	0.081983801568
0	7889	72.126339680011	0.05671002411
0	7894	72.183049704121	0.026408563495
0	7899	72.209458267616	0.106823731781
0	7905	72.316281999397	0.015462340865
0	7910	72.331744340262	0.026135470386
0	7915	72.357879810648	0.066723823278
0	7922	72.424603633926	0.002119871879
0	7924	72.426723505805	0.037675343115
0	7932	72.46439884892	0.076684242665
0	7938	72.541083091585	0.060809401857
0	7945	72.601892493442	0.098636176865
0	7951	72.700528670307	0.166521141396
0	7957	72.867049811703	0.016606803942
0	7962	72.883656615645	0.071218777025
0	7968	72.95487539267	0.011693421069
0	7973	72.966568813739	0.010068581463
0	7978	72.976637395202	0.025610327845
0	7983	73.002247723047	0.030940791265
0	7989	73.033188514312	0.031113417378
0	7995	73.06430193169	0.103777249801
0	8000	73.168079181491	0.03237769203
0	8005	73.200456873521	0.014875514612
0	8010	73.215332388133	0.134640247903
0	8015	73.349972636036	0.076011475758
0	8020	73.425984111794	0.036978237625
0	8025	73.462962349419	0.042600186436
0	8033	73.505562535855	0.214155179359
0	8038	73.719717715214	0.016580480105
0	8043	73.736298195319	0.041823155326
0	8048	73.778121350645	0.063626464499
0	8053	73.841747815144	0.021993063388
0	8058	73.863740878532	0.00459246085
0	8060	73.868333339382	0.043550401257
0	8068	73.911883740639	0.014790800148
0	8073	73.926674540787	0.036070338547
0	8078	73.962744879334	0.013063178553
0	8083	73.975808057887	0.051014210155
0	8088	74.026822268042	0.013064192891
0	8093	74.039886460933	0.078509924596
0	8099	74.118396385529	0.015998125801
0	8104	74.13439451133	0.121716065714
0	8110	74.256110577044	0.016264745892
0	8115	74.272375322936	0.069885983441
0	8120	74.342261306377	0.16601325179
0	8126	74.508274558167	0.02037373316
0	8131	74.528648291327	0.022210840815
0	8136	74.550859132142	0.112714264982
0	8141	74.663573397124	0.020301550826
0	8146	74.68387494795	0.03405742496
0	8151	74.71793237291	0.066240322475
0	8157	74.784172695385	0.071690109383
0	8162	74.855862804768	0.031006453295
0	8167	74.886869258063	0.132402291783
0	8172	75.019271549846	0.033997126651
0	8177	75.053268676497	0.022268662874
0	8182	75.075537339371	0.088555246165
0	8188	75.164092585536	0.030765402317
0	8193	75.194857987853	0.007280604288
0	8195	75.202138592141	0.150311488657
0	8204	75.352450080798	0.036588550961
0	8209	75.389038631759	0.010223592289
0	8214	75.399262224048	0.001988210386
0	8216	75.401250434434	0.194330681435
0	8226	75.595581115869	0.014624228099
0	8231	75.610205343968	0.200542163725
0	8237	75.810747507693	0.013696205886
0	8242	75.824443713579	0.0315668924
0	8251	75.856010605979	0.022963411523
0	8256	75.878974017502	0.009683608064
0	8261	75.888657625566	0.020039219311
0	8266	75.908696844877	0.011205244142
0	8271	75.919902089019	0.018914897885
0	8277	75.938816986904	0.03960173357
0	8282	75.978418720474	0.304010343792
0	8289	76.282429064266	0.046366228351
0	8294	76.328795292617	0.042964498583
0	8299	76.3717597912	0.087813137128
0	8305	76.459572928328	0.023456280611
0	8311	76.483029208939	0.056337614525
0	8316	76.539366823464	0.037093358204
0	8321	76.576460181668	0.029801206969
0	8326	76.606261388637	0.128826974683
0	8331	76.73508836332	0.027233033733
0	8336	76.762321397053	0.076580937491
0	8342	76.838902334544	0.033731084814
0	8347	76.872633419358	0.03179963201
0	8352	76.904433051368	0.021368384515
0	8357	76.925801435883	0.008045891376
0	8359	76.933847327259	0.012919341776
0	8367	76.946766669035	0.003792572228
0	8369	76.950559241263	0.19544038445
0	8377	77.145999625713	0.000115895748
0	8379	77.146115521461	0.049720139525
0	8388	77.195835660986	0.117911383146
0	8394	77.313747044132	0.00252756428
0	8396	77.316274608412	0.009167408024
0	8401	77.325442016436	0.057342747051
0	8410	77.382784763487	0.068028753147
0	8416	77.450813516634	0.022502654997
0	8421	77.473316171631	0.192118162841
0	8428	77.665434334472	0.008435166044
0	8430	77.673869500516	0.043759544583
0	8438	77.717629045099	0.076014020158
0	8444	77.793643065257	0.09615388986
0	8449	77.889796955117	0.040152571723
0	8454	77.92994952684	0.086190586593
0	8460	78.016140113433	0.0093764571
0	8465	78.025516570533	0.142062802871
0	8470	78.167579373404	0.050157602452
0	8475	78.217736975856	0.066941378054
0	8480	78.28467835391	0.010317896804
0	8485	78.294996250714	0.026374783112
0	8490	78.321371033826	0.116475465578
0	8495	78.437846499404	0.018407196767
0	8500	78.456253696171	0.002511231544
0	8502	78.458764927715	0.037486706013
0	8512	78.496251633728	0.050283267387
0	8517	78.546534901115	0.019558953252
0	8522	78.566093854367	0.024298081366
0	8527	78.590391935733	0.144839079288
0	8533	78.735231015021	0.001331282454
0	8535	78.736562297475	0.004558380364
0	8537	78.741120677839	0.035074514945
0	8548	78.776195192784	0.0109529265
0	8553	78.787148119284	0.068377600214
0	8559	78.855525719498	0.025812698425
0	8564	78.881338417923	0.048903682621
0	8569	78.930242100544	0.039880403238
0	8574	78.970122503782	0.003622226885
0	8576	78.973744730667	0.043922342405
0	8584	79.017667073072	0.003334202957
0	8586	79.021001276029	0.091964418565
0	8594	79.112965694594	0.02893781358
0	8601	79.141903508174	0.017822999862
0	8606	79.159726508036	0.001463853426
0	8608	79.161190361462	0.081705040323
0	8617	79.242895401785	0.046226076294
0	8622	79.289121478079	0.01835994646
0	8628	79.307481424539	0.044183424819
0	8633	79.351664849358	0.017515342627
0	8638	79.369180191985	0.100803771487
0	8645	79.469983963472	0.092526740735
0	8652	79.562510704207	0.04739414274
0	8657	79.609904846947	0.007508788109
0	8659	79.617413635056	0.094506521848
0	8667	79.711920156904	0.136916124918
0	8672	79.848836281822	0.023435741546
0	8677	79.872272023368	0.058032756538
0	8682	79.930304779906	0.043327712328
0	8687	79.973632492234	0.041296568885
0	8693	80.014929061119	0.006955959395
0	8695	80.021885020514	0.01761951979
0	8703	80.039504540304	0.008777347752
0	8708	80.048281888056	0.058058404886
0	8713	80.106340292942	0.175472234829
0	8720	80.281812527771	0.092924216356
0	8725	80.374736744127	0.027301088024
0	8731	80.402037832151	0.058962268291
0	8736	80.461000100442	0.039714224881
0	8741	80.500714325323	0.087884284111
0	8746	80.588598609434	0.00289905566
0	8748	80.591497665094	0.043835049214
0	8757	80.635332714308	0.257166781146
0	8764	80.892499495454	0.023366465664
0	8769	80.915865961118	0.005702442028
0	8771	80.921568403146	0.03143100671
0	8779	80.952999409856	0.217031254072
0	8785	81.170030663928	0.025300738181
0	8790	81.195331402109	0.023241399595
0	8795	81.218572801704	0.055056820266
0	8800	81.27362962197	0.283799676664
0	8809	81.557429298634	0.180324294504
0	8814	81.737753593138	0.016451801494
0	8819	81.754205394632	0.093443643518
0	8824	81.84764903815	0.002348389324
0	8826	81.849997427474	0.011298761652
0	8832	81.861296189126	0.144519950019
0	8840	82.005816139145	0.034570757345
0	8846	82.04038689649	0.039910041846
0	8851	82.080296938336	0.120178801371
0	8856	82.200475739707	0.065966744062
0	8862	82.266442483769	0.36408687282
0	8869	82.630529356589	0.0164977076
0	8874	82.647027064189	0.154526905716
0	8881	82.801553969905	0.130740953429
0	8887	82.932294923334	0.0044217196
0	8889	82.936716642934	0.063821964838
0	8897	83.000538607772	0.016012022359
0	8902	83.016550630131	0.057415356182
0	8907	83.073965986313	0.064626510882
0	8913	83.138592497195	0.014587957346
0	8918	83.153180454541	0.000359983998
0	8920	83.153540438539	0.089067318987
0	8928	83.242607757526	0.062765086259
0	8933	83.305372843785	0.07845455973
0	8940	83.383827403515	0.001584915457
0	8942	83.385412318972	0.031442422266
0	8950	83.416854741238	0.009151795634
0	8955	83.426006536872	0.016202344744
0	8960	83.442208881616	0.062245924252
0	8965	83.504454805868	0.119734407458
0	8970	83.624189213326	0.142859014914
0	8977	83.76704822824	0.145920356282
0	8982	83.912968584522	0.001700160159
0	8984	83.914668744681	0.03875926002
0	8992	83.953428004701	0.002868945377
0	8994	83.956296950078	0.018900649852
0	9002	83.97519759993	0.042636971524
0	9007	84.017834571454	0.11511428048
0	9014	84.132948851934	0.040781150872
0	9019	84.173730002806	0.012266564265
0	9024	84.185996567071	0.10977616517
0	9031	84.295772732241	0.045715701325
0	9036	84.341488433566	0.103290409877
0	9041	84.444778843443	0.052091533736
0	9046	84.496870377179	0.065608429142
0	9051	84.562478806321	0.053915469059
0	9056	84.61639427538	0.05680683378
0	9061	84.67320110916	0.031104039039
0	9067	84.704305148199	0.084278000364
0	9073	84.788583148563	0.257457743998
0	9079	85.046040892561	0.094039418108
0	9086	85.140080310669	0.061698857375
0	9092	85.201779168044	0.070268614719
0	9097	85.272047782763	0.010077485956
0	9102	85.282125268719	0.011459544956
0	9108	85.293584813675	0.165235591842
0	9113	85.458820405517	0.042048088327
0	9119	85.500868493844	0.051808156322
0	9126	85.552676650166	0.022327194888
0	9131	85.575003845054	0.072895370468
0	9136	85.647899215522	0.048678832983
0	9141	85.696578048505	0.054737858586
0	9148	85.751315907091	0.19604838358
0	9154	85.947364290671	0.025852417582
0	9159	85.973216708253	0.080268806339
0	9164	86.053485514592	0.012799826047
0	9169	86.066285340639	0.131265800962
0	9175	86.197551141601	0.009503880821
0	9180	86.207055022422	0.023434747589
0	9185	86.230489770011	0.037085114516
0	9190	86.267574884527	0.043980717009
0	9195	86.311555601536	0.014692272897
0	9200	86.326247874433	0.007066698206
0	9202	86.333314572639	0.019387646498
0	9210	86.352702219137	2.2235648e-05
0	9212	86.352724454785	0.05476093466
0	9220	86.407485389445	0.061463261648
0	9226	86.468948651093	0.001780876933
0	9228	86.470729528026	0.010720021098
0	9233	86.481449549124	0.030717218891
0	9242	86.512166768015	0.116984879514
0	9248	86.629151647529	0.020630912497
0	9253	86.649782560026	0.019253481252
0	9258	86.669036041278	0.031487281844
0	9263	86.700523323122	0.007961512931
0	9265	86.708484836053	0.024488615522
0	9273	86.732973451575	0.142991814917
0	9278	86.875965266492	0.011473375619
0	9283	86.887438642111	0.010593044641
0	9288	86.898031686752	0.049218967718
0	9293	86.94725065447	0.113348118674
0	9298	87.060598773144	0.085662956044
0	9303	87.146261729188	0.007804765434
0	9305	87.154066494622	0.004289255063
0	9310	87.158355749685	0.028845858313
0	9319	87.187201607998	0.004671962454
0	9321	87.191873570452	0.098981030321
0	9330	87.290854600773	0.010912785124
0	9335	87.301767385897	0.096200220675
0	9340	87.397967606572	0.121198115841
0	9345	87.519165722413	0.061973400623
0	9350	87.581139123036	0.01259447157
0	9355	87.593733594606	0.123586764594
0	9360	87.7173203592	0.004742129644
0	9362	87.722062488844	0.079272336796
0	9370	87.80133482564	0.04116553918
0	9375	87.84250036482	0.081948009885
0	9380	87.924448374705	0.02984828822
0	9385	87.954296662925	0.029295098456
0	9390	87.983591761381	0.037311612629
0	9396	88.02090337401	0.04916165015
0	9401	88.07006502416	0.064084326514
0	9406	88.134149350674	0.134598656294
0	9412	88.268748006968	0.026956752228
0	9417	88.295704759196	0.008922555333
0	9422	88.304627314529	0.106113921759
0	9428	88.410741236288	0.069129900134
0	9433	88.479871136422	0.045392400023
0	9438	88.525263536445	0.025993372971
0	9443	88.551256909416	0.00417465817
0	9445	88.555431567586	0.042411447485
0	9453	88.597843015071	0.020970330329
0	9459	88.6188133454	0.004483058752
0	9461	88.623296404152	0.01656338717
0	9469	88.639859791322	0.04837473023
0	9475	88.688234521552	0.04014857492
0	9480	88.728383096472	0.085877018087
0	9485	88.814260114559	0.102857064373
0	9493	88.917117178932	0.032224185332
0	9498	88.949341364264	8.8675933e-05
0	9500	88.949430040197	0.169322815209
0	9508	89.118752855406	0.061457194524
0	9513	89.18021004993	0.042975053903
0	9518	89.223185103833	0.174393143656
0	9524	89.397578247489	0.019331324399
0	9529	89.416909571888	0.048831029548
0	9534	89.465740601436	0.056879958417
0	9539	89.522620559853	0.121074685478
0	9545	89.643695245331	0.092772279952
0	9550	89.736467525283	0.065309113086
0	9556	89.801776638369	0.070392305201
0	9562	89.87216894357	0.029060955352
0	9567	89.901229898922	0.005333885503
0	9569	89.906563784425	0.000119170061
0	9571	89.906682954486	0.019929869427
0	9582	89.926612823913	0.028590606857
0	9588	89.95520343077	0.107805917025
0	9593	90.063009347795	0.010065171682
0	9598	90.073074519477	0.106868165109
0	9603	90.179942684586	0.028427576408
0	9608	90.208370260994	0.003229027599
0	9610	90.211599288593	0.013306126039
0	9615	90.224905414632	0.009541128337
0	9624	90.234446542969	0.146419638212
0	9630	90.380866181181	0.021878306422
0	9635	90.402744487603	0.0519635415
0	9640	90.454708029103	0.010987826098
0	9645	90.465695855201	0.009060413288
0	9650	90.474756268489	0.048556078882
0	9656	90.523312347371	0.037154663925
0	9661	90.560467011296	0.09032841016
0	9667	90.650795421456	0.08759563676
0	9672	90.738391058216	0.001645102545
0	9674	90.740036160761	0.100003454465
0	9682	90.840039615226	0.099239841365
0	9689	90.939279456591	0.01853168009
0	9694	90.957811136681	0.003318530977
0	9696	90.961129667658	0.033457538613
0	9704	90.994587206271	0.075692389126
0	9709	91.070279595397	0.028654342739
0	9714	91.098933938136	0.026108508015
0	9719	91.125042446151	0.136310804489
0	9724	91.26135325064	0.02946049138
0	9729	91.29081374202	0.000185242923
0	9731	91.290998984943	0.021981786254
0	9739	91.312980771197	0.262733761235
0	9744	91.575714532432	0.02534621164
0	9749	91.601060744072	0.008398855001
0	9752	91.609459599073	0.106395604205
0	9762	91.715855203278	0.031518871558
0	9767	91.747374074836	0.019895646662
0	9772	91.767269721498	0.006696434483
0	9774	91.773966155981	0.056433187118
0	9783	91.830399343099	0.03988278177
0	9789	91.870282124869	0.065224249563
0	9795	91.935506374432	0.011765638182
0	9800	91.947272012614	0.01931788598
0	9805	91.966589898594	0.111070439848
0	9810	92.077660338442	0.03674395746
0	9815	92.114404295902	0.113506991541
0	9821	92.227911287443	0.005820717487
0	9823	92.23373200493	0.034628854062
0	9832	92.268360858992	0.080118390997
0	9838	92.348479249989	0.00658608464
0	9840	92.355065334629	0.029459316823
0	9850	92.384524651452	0.090198026522
0	9855	92.474722677974	0.038209818923
0	9860	92.512932496897	0.010130729859
0	9866	92.523063226756	0.007122692833
0	9868	92.530185919589	0.054061744098
0	9876	92.584247663687	0.063496652521
0	9882	92.647744316208	0.077155047758
0	9887	92.724899363966	0.052391577404
0	9893	92.77729094137	0.096911118361
0	9898	92.874202059731	0.116564178862
0	9904	92.990766238593	0.084054035632
0	9909	93.074820274225	0.044418200837
0	9915	93.119238475062	0.05207852876
0	9920	93.171317003822	0.205554508954
0	9927	93.376871512776	0.045866988925
0	9933	93.422738501701	0.174212000464
0	9938	93.596950502165	0.010737944887
0	9943	93.607688447052	0.053916707422
0	9948	93.661605154474	0.054976236298
0	9954	93.716581390772	0.030158557915
0	9959	93.746739948687	0.000199682676
0	9961	93.746939631363	0.085566243302
0	9969	93.832505874665	0.010802354293
0	9974	93.843308228958	0.060559609042
0	9979	93.903867838	0.130290535168
0	9985	94.034158373168	0.038658143246
0	9991	94.072816516414	0.022972996523
0	9996	94.095789512937	0.058131685094
0	10001	94.153921198031	0.004854686633
0	10003	94.158775884664	0.118113526152
0	10011	94.276889410816	0.000936817382
0	10013	94.277826228198	0.042501944671
0	10021	94.320328172869	0.03617414184
0	10026	94.356502314709	0.023505931834
0	10031	94.380008246543	0.035456783427
0	10036	94.41546502997	0.051437671146
0	10042	94.466902701116	0.118812353063
0	10048	94.585715054179	0.04534840569
0	10055	94.631063459869	0.041626790162
0	10060	94.672690250031	0.017235147589
0	10065	94.68992539762	0.002368291825
0	10067	94.692293689445	0.115646902232
0	10076	94.807940591677	0.158453908743
0	10081	94.96639450042	0.011574770582
0	10086	94.977969271002	0.037635115059
0	10091	95.015604386061	0.033885543751
0	10096	95.049489929812	0.036698067456
0	10101	95.086187997268	0.053925970774
0	10107	95.140113968042	0.079123949923
0	10112	95.219237917965	0.085743173461
0	10117	95.304981091426	0.010413492354
0	10122	95.31539458378	0.034518633065
0	10128	95.349913216845	0.036502430219
0	10134	95.386415647064	0.049154952122
0	10139	95.435570599186	0.021430374976
0	10144	95.457000974162	0.004747252385
0	10146	95.461748226547	0.028696100887
0	10155	95.490444327434	0.001987925096
0	10157	95.49243225253	0.048824266983
0	10165	95.541256519513	0.012921252236
0	10170	95.554177771749	0.005961266069
0	10172	95.560139037818	0.1313569275
0	10180	95.691495965318	0.040442349836
0	10185	95.731938315154	0.014998644604
0	10190	95.746936959758	0.011901366999
0	10195	95.758838326757	0.008662111208
0	10200	95.767500437965	0.028921930902
0	10205	95.796422368867	0.044333426439
0	10210	95.840755795306	0.037030249474
0	10216	95.87778604478	0.007846620005
0	10221	95.885632664785	0.102961116851
0	10227	95.988593781636	0.013735415764
0	10233	96.0023291974	0.088347619255
0	10238	96.090676816655	0.056245576299
0	10243	96.146922392954	0.001382999854
0	10245	96.148305392808	0.000716851821
0	10247	96.149022244629	0.009334366135
0	10252	96.158356610764	0.045120018141
0	10263	96.203476628905	0.004516410305
0	10265	96.20799303921	0.011670029953
0	10273	96.219663069163	0.083726583977
0	10278	96.30338965314	0.01254519543
0	10283	96.31593484857	0.099371924513
0	10288	96.415306773083	0.021222010335
0	10293	96.436528783418	0.015621307984
0	10298	96.452150091402	0.008475069366
0	10303	96.460625160768	0.005089584546
0	10305	96.465714745314	0.140436739017
0	10316	96.606151484331	0.007380409794
0	10321	96.613531894125	0.027867014635
0	10326	96.64139890876	0.008453353986
0	10331	96.649852262746	0.015701018686
0	10336	96.665553281432	0.036797561102
0	10341	96.702350842534	0.045286590958
0	10348	96.747637433492	0.037137584832
0	10353	96.784775018324	0.009782377945
0	10358	96.794557396269	0.018116571034
0	10363	96.812673967303	0.019063454337
0	10368	96.83173742164	0.17835792692
0	10373	97.01009534856	0.088442594972
0	10380	97.098537943532	0.027617054393
0	10387	97.126154997925	0.016873534198
0	10392	97.143028532123	0.064246533089
0	10397	97.207275065212	0.008252127164
0	10402	97.215527192376	0.065748810649
0	10407	97.281276003025	0.011640004562
0	10412	97.292916007587	0.033686005144
0	10417	97.326602012731	0.070194339846
0	10423	97.396796352577	0.059524713203
0	10430	97.45632106578	0.009657242437
0	10435	97.465978308217	0.038604774808
0	10440	97.504583083025	0.071450584138
0	10445	97.576033667163	0.021702382582
0	10450	97.597736049745	0.03801529632
0	10455	97.635751346065	0.001183295832
0	10457	97.636934641897	0.030000386843
0	10465	97.66693502874	0.113531530516
0	10471	97.780466559256	0.003001992788
0	10473	97.783468552044	0.006624296444
0	10478	97.790092848488	0.104393126272
0	10486	97.89448597476	0.170288987478
0	10491	98.064774962238	0.02423301788
0	10496	98.089007980118	0.08313480995
0	10501	98.172142790068	0.114253813242
0	10507	98.28639660331	0.04181707646
0	10512	98.32821367977	0.108804830023
0	10517	98.437018509793	0.009876664946
0	10522	98.446895174739	0.082504115638
0	10527	98.529399290377	0.06906447908
0	10533	98.598463769457	0.103574440672
0	10539	98.702038210129	0.007072303583
0	10541	98.709110513712	0.176333819858
0	10549	98.88544433357	0.017383142495
0	10554	98.902827476065	0.030132923853
0	10561	98.932960399918	0.01323998811
0	10566	98.946200388028	0.066874465735
0	10572	99.013074853763	0.010401222297
0	10577	99.02347607606	0.010472525806
0	10582	99.033948601866	0.025179997056
0	10587	99.059128598922	0.101493780733
0	10592	99.160622379655	0.070730790532
0	10598	99.231353170187	0.006643883072
0	10600	99.237997053259	0.038676959191
0	10608	99.27667401245	0.097800986069
0	10614	99.374474998519	0.00936073096
0	10619	99.383835729479	0.001217661613
0	10621	99.385053391092	0.012138359294
0	10626	99.397191750386	0.096859816204
0	10634	99.49405156659	0.039855509164
0	10639	99.533907075754	0.074588126118
0	10644	99.608495201872	0.229446424718
0	10654	99.83794162659	0.009143955093
0	10659	99.847085581683	0.061998557101
0	10664	99.909084138784	0.01064314851
0	10669	99.919727287294	0.006122068041
0	10671	99.925849355335	0.08462561657
0	10679	100.010474971905	0.012579572019
0	10684	100.023054543924	0.033508692461
0	10690	100.056563236385	0.00717613156
0	10692	100.063739367945	0.03567215322
0	10700	100.099411521165	0.084798700308
0	10706	100.184210221473	0.023711505348
0	10711	100.207921726821	0.040401623142
0	10716	100.248323349963	0.054675082847
0	10721	100.30299843281	0.027953120914
0	10726	100.330951553724	0.000523318611
0	10728	100.331474872335	0.013166379186
0	10733	100.344641251521	0.101349371341
0	10741	100.445990622862	0.018053610457
0	10747	100.464044233319	0.071913176488
0	10752	100.535957409807	0.028864226332
0	10757	100.564821636139	0.012039534777
0	10762	100.576861170916	0.010385551495
0	10767	100.587246722411	0.058868964792
0	10772	100.646115687203	0.038189632075
0	10777	100.684305319278	0.050103094362
0	10782	100.73440841364	0.05194948971
0	10787	100.78635790335	0.043501970648
0	10792	100.829859873998	0.060765815256
0	10798	100.890625689254	0.029791277755
0	10803	100.920416967009	0.006708504794
0	10805	100.927125471803	0.053755418169
0	10814	100.980880889972	0.006396285972
0	10816	100.987277175944	0.008221100405
0	10821	100.995498276349	0.064687276295
0	10830	101.060185552644	0.038172907357
0	10835	101.098358460001	0.010884402084
0	10840	101.109242862085	0.079854650366
0	10846	101.189097512451	0.092598446253
0	10851	101.281695958704	0.112346251879
0	10857	101.394042210583	0.127082025314
0	10863	101.521124235897	0.036142228242
0	10868	101.557266464139	0.111973884598
0	10875	101.669240348737	0.006416868649
0	10877	101.675657217386	0.069129895402
0	10886	101.744787112788	0.039687726259
0	10891	101.784474839047	0.059275758704
0	10898	101.843750597751	0.054117916747
0	10903	101.897868514498	0.0060517842
0	10905	101.903920298698	0.053898467832
0	10914	101.95781876653	0.034841686694
0	10919	101.992660453224	0.066930573963
0	10924	102.059591027187	0.058005897077
0	10931	102.117596924264	0.085367395478
0	10936	102.202964319742	0.038007733262
0	10941	102.240972053004	0.188756795519
0	10950	102.429728848523	0.064097463849
0	10955	102.493826312372	0.118916371672
0	10961	102.612742684044	0.008687848539
0	10966	102.621430532583	0.00495883485
0	10968	102.626389367433	0.012016277713
0	10976	102.638405645146	0.011170824014
0	10981	102.64957646916	0.051936491326
0	10986	102.701512960486	0.126616184523
0	10992	102.828129145009	0.002527517834
0	10994	102.830656662843	0.000952902417
0	10996	102.83160956526	0.013383084189
0	11004	102.844992649449	0.052471965243
0	11012	102.897464614692	0.00242085269
0	11014	102.899885467382	0.054832794095
0	11022	102.954718261477	0.21750920266
0	11029	103.172227464137	0.046770085787
0	11035	103.218997549924	0.010779281262
0	11041	103.229776831186	0.069903762693
0	11046	103.299680593879	0.063376649663
0	11052	103.363057243542	0.044187561291
0	11057	103.407244804833	0.032602798869
0	11062	103.439847603702	0.020304471736
0	11067	103.460152075438	0.21295751278
0	11073	103.673109588218	0.067175916291
0	11078	103.740285504509	0.059037893971
0	11083	103.79932339848	0.05855411094
0	11090	103.85787750942	0.024953021675
0	11095	103.882830531095	0.002973241622
0	11097	103.885803772717	0.068705594441
0	11105	103.954509367158	0.014806103633
0	11110	103.969315470791	0.157029031157
0	11117	104.126344501948	0.002591188838
0	11119	104.128935690786	0.013827193658
0	11127	104.142762884444	0.01378212984
0	11132	104.156545014284	0.029980733921
0	11137	104.186525748205	0.025925738854
0	11142	104.212451487059	0.040426406999
0	11147	104.252877894058	0.050587028514
0	11152	104.303464922572	0.038739005258
0	11157	104.34220392783	0.036647493034
0	11162	104.378851420864	0.009449474414
0	11167	104.388300895278	0.030284288443
0	11172	104.418585183721	0.009973433863
0	11177	104.428558617584	0.003229880312
0	11179	104.431788497896	0.006875085963
0	11184	104.438663583859	0.006445572244
0	11189	104.445109156103	0.178149159016
0	11197	104.623258315119	0.045042251992
0	11202	104.668300567111	0.079160730191
0	11209	104.747461297302	0.112320591642
0	11214	104.859781888944	0.009784420707
0	11219	104.869566309651	0.049446368499
0	11224	104.91901267815	0.042022482087
0	11229	104.961035160237	0.028072150296
0	11234	104.989107310533	0.004060985921
0	11236	104.993168296454	0.049896755183
0	11244	105.043065051637	0.028345388361
0	11249	105.071410439998	0.033561483905
0	11255	105.104971923903	0.052275446627
0	11260	105.15724737053	0.15627350271
0	11266	105.31352087324	0.029016712141
0	11271	105.342537585381	0.015258986758
0	11276	105.357796572139	0.01636839553
0	11281	105.374164967669	0.076910179242
0	11290	105.451075146911	0.059848457637
0	11296	105.510923604548	0.047471663163
0	11302	105.558395267711	0.063019789815
0	11307	105.621415057526	0.03734651852
0	11312	105.658761576046	0.005949627935
0	11314	105.664711203981	0.026431406599
0	11322	105.69114261058	0.056128631865
0	11327	105.747271242445	0.001709761359
0	11329	105.748981003804	0.082437634675
0	11337	105.831418638479	0.015260055197
0	11343	105.846678693676	0.057226687711
0	11348	105.903905381387	0.01243538125
0	11353	105.916340762637	0.035415679498
0	11359	105.951756442135	0.022197214416
0	11365	105.973953656551	0.097688753301
0	11371	106.071642409852	0.040410780178
0	11377	106.11205319003	0.036662531468
0	11382	106.148715721498	0.034240978354
0	11387	106.182956699852	0.206985439264
0	11393	106.389942139116	0.016542395089
0	11398	106.406484534205	0.061894520143
0	11404	106.468379054348	0.028604940433
0	11409	106.496983994781	0.03086179714
0	11414	106.527845791921	0.021359429659
0	11419	106.54920522158	0.083220656457
0	11424	106.632425878037	0.067250586753
0	11429	106.69967646479	0.107397998602
0	11435	106.807074463392	0.064769204874
0	11441	106.871843668266	0.103952000124
0	11447	106.97579566839	0.034700102624
0	11452	107.010495771014	0.025158590814
0	11457	107.035654361828	0.055272277248
0	11462	107.090926639076	0.013202180409
0	11467	107.104128819485	0.068902817869
0	11472	107.173031637354	0.056977711681
0	11478	107.230009349035	0.000364196099
0	11480	107.230373545134	0.057158951409
0	11490	107.287532496543	0.003869593461
0	11492	107.291402090004	0.108593397725
0	11501	107.399995487729	0.035562198541
0	11507	107.43555768627	0.034450408561
0	11512	107.470008094831	0.091763135202
0	11518	107.561771230033	0.111740878819
0	11524	107.673512108852	0.033174631411
0	11529	107.706686740263	0.269176429983
0	11538	107.975863170246	0.00795112891
0	11540	107.983814299156	0.027631734751
0	11548	108.011446033907	0.08743031774
0	11553	108.098876351647	0.088723817021
0	11558	108.187600168668	0.004074829096
0	11560	108.191674997764	0.033645032758
0	11568	108.225320030522	0.043800964486
0	11574	108.269120995008	0.025376396987
0	11580	108.294497391995	0.001349924383
0	11582	108.295847316378	0.106759813338
0	11591	108.402607129716	0.162339611771
0	11597	108.564946741487	0.03623513479
0	11602	108.601181876277	0.032728316518
0	11608	108.633910192795	0.03513371054
0	11613	108.669043903335	0.020770585836
0	11618	108.689814489171	0.086974771282
0	11623	108.776789260453	0.084918515296
0	11628	108.861707775749	0.270414575502
0	11634	109.132122351251	0.01828862193
0	11639	109.150410973181	0.003234515707
0	11641	109.153645488888	0.317788444029
0	11650	109.471433932917	0.033390562057
0	11655	109.504824494974	0.115180073589
0	11660	109.620004568563	0.198011073802
0	11667	109.818015642365	0.013822330916
0	11672	109.831837973281	0.05587729396
0	11677	109.887715267241	0.027751653979
0	11682	109.91546692122	0.01567020042
0	11687	109.93113712164	0.084740281191
0	11693	110.015877402831	0.012173053131
0	11698	110.028050455962	0.041954025254
0	11703	110.070004481216	0.011032276297
0	11708	110.081036757513	0.023219419064
0	11713	110.104256176577	0.017797199697
0	11718	110.122053376274	0.026660705565
0	11723	110.148714081839	0.024417675285
0	11728	110.173131757124	0.010620644673
0	11733	110.183752401797	0.029223091532
0	11738	110.212975493329	0.095744357974
0	11744	110.308719851303	0.03960959848
0	11751	110.348329449783	0.015119975935
0	11756	110.363449425718	0.000931026298
0	11758	110.364380452016	0.043945427119
0	11766	110.408325879135	0.08986455428
0	11771	110.498190433415	0.024939319353
0	11776	110.523129752768	0.007132038531
0	11778	110.530261791299	0.083175160476
0	11787	110.613436951775	0.002731401851
0	11789	110.616168353626	0.026868790105
0	11797	110.643037143731	0.089256773851
0	11803	110.732293917582	0.039792993359
0	11808	110.772086910941	0.006584613256
0	11810	110.778671524197	0.03431005922
0	11818	110.812981583417	0.004461098037
0	11820	110.817442681454	0.010710012036
0	11825	110.82815269349	0.073256191398
0	11834	110.901408884888	0.104812690374
0	11842	111.006221575262	0.014215073505
0	11848	111.020436648767	0.024986097166
0	11853	111.045422745933	0.03342618098
0	11858	111.078848926913	0.032057488117
0	11864	111.11090641503	0.076137109958
0	11869	111.187043524988	0.027170482928
0	11874	111.214214007916	0.006609311
0	11876	111.220823318916	0.046993542294
0	11884	111.26781686121	0.139728140323
0	11890	111.407545001533	0.098665009608
0	11895	111.506210011141	0.029021172723
0	11900	111.535231183864	0.048845216283
0	11905	111.584076400147	0.01257623696
0	11910	111.596652637107	0.038114483848
0	11915	111.634767120955	0.077902076923
0	11920	111.712669197878	0.121542451736
0	11927	111.834211649614	0.008100057625
0	11932	111.842311707239	0.08217784171
0	11938	111.924489548949	0.051030937162
0	11943	111.975520486111	0.01402272046
0	11948	111.989543206571	0.044673941055
[...]
19	22813	212.952388765796	0.024589289309262
19	22814	212.976978055105	1.1491454824786
19	22990	214.126123537584	3.5868190855083
19	23389	217.712942623092	2.2271261054775
19	23614	219.94006872857	3.9572421646113
19	24166	223.897310893181	1.125065382801
19	24299	225.022376275982	0.23621309939867
19	24311	225.258589375381	2.8059274186358
19	24627	228.064516794017	1.2837116008293
19	24746	229.348228394846	1.0271152969652
19	24852	230.375343691811	0.66868567217637
19	24911	231.044029363987	1.850652521673
19	25118	232.89468188566	0.19010426981496
19	25137	233.084786155475	0.29040147908521
19	25171	233.37518763456	11.400838014531
19	26616	244.776025649091	0.40181948843929
19	26665	245.17784513753	0.49174390465069
19	26691	245.669589042181	0.037371901771307
19	26692	245.706960943952	2.2944037791933
19	26957	248.001364723145	1.752667358577
19	27183	249.754032081722	0.65111952880492
19	27236	250.405151610527	0.29962838332188
19	27264	250.704779993849	0.70169406346334
19	27308	251.406474057312	0.75915425392164
19	27406	252.165628311234	0.99115807777625
19	27498	253.15678638901	1.4264966599021
19	27639	254.583283048912	0.725005257534
19	27707	255.308288306446	1.6453170119303
19	27867	256.953605318376	0.51618295299245
19	27909	257.469788271368	4.0849044239747
19	28347	261.554692695343	0.38518784753714
19	28428	261.93988054288	0.57738503534382
19	28479	262.517265578224	2.4408835768572
19	28723	264.958149155081	0.59855683667198
19	28819	265.556705991753	3.1266073313164
19	29124	268.683313323069	2.82823007523
19	29443	271.511543398299	2.3807266550447
19	29749	273.892270053344	2.8982326103688
19	30102	276.790502663713	1.2200800281341
19	30266	278.010582691847	1.8744426911325
19	30434	279.88502538298	7.8618357876157
19	31289	287.746861170596	4.8809961985014
19	31822	292.627857369097	1.5435007111305
19	32010	294.171358080227	1.3973543807616
19	32199	295.568712460989	1.1090756235788
19	32339	296.677788084568	3.5602807432502
19	32689	300.238068827818	0.78655867513194
19	32761	301.02462750295	5.66197845997
19	33395	306.68660596292	0.41479662162548
19	33418	307.101402584545	2.6038362735518
19	33742	309.705238858097	3.377473005932
19	34113	313.082711864029	8.0928660070785
19	35069	321.175577871107	1.0544292710626
19	35205	322.23000714217	1.0111638100429
19	35305	323.241170952213	2.3135561810014
19	35628	325.554727133214	0.34021547714534
19	35667	325.894942610359	3.0559809525392
19	35998	328.950923562898	0.8290399039942
19	36082	329.779963466892	0.026474593735525
19	36083	329.806438060628	5.940980026705
19	36608	335.747418087333	2.9870351722849
19	36864	338.734453259618	2.5164484562611
19	37156	341.250901715879	0.75184373324041
19	37248	342.002745449119	2.3437001561255
19	37436	344.346445605244	1.6936281598264
19	37556	346.04007376507	3.2294886521674
19	37934	349.269562417237	0.49292468386135
19	37961	349.762487101098	2.9408696850372
19	38312	352.703356786135	1.5462016695762
19	38445	354.249558455711	3.7324192439661
19	38829	357.981977699677	5.4862301015458
19	39523	363.468207801223	0.76045379252166
19	39608	364.228661593745	0.19863629941404
19	39628	364.427297893159	0.77677614240956
19	39712	365.204074035569	12.349852162626
19	41026	377.553926198195	3.6424506288889
19	41463	381.196376827084	7.0963501175472
19	42214	388.292726944631	5.6164073484224
19	42768	393.909134293053	0.84423232506128
19	42845	394.753366618114	2.7796545175983
19	43156	397.533021135712	1.7825946882534
19	43362	399.315615823965	1.2494825656548
20	2215	20.414980531223	1.5882187972341
20	2425	22.003199328457	7.4709646103735
20	3314	29.474163938831	0.39098267137347
20	3367	29.865146610204	0.85214609133447
20	3474	30.717292701538	0.019077459390137
20	3475	30.736370160928	3.8595772278466
20	3890	34.595947388775	1.8091695030529
20	4022	36.405116891828	1.2063340047823
20	4171	37.61145089661	2.6511045852369
20	4424	40.262555481847	1.8208778032263
20	4604	42.083433285073	0.29465011996387
20	4634	42.378083405037	1.6755062056909
20	4835	44.053589610728	2.8588848878093
20	5162	46.912474498537	0.3384557065898
20	5207	47.250930205127	0.029231574511144
20	5211	47.280161779638	1.2095890878412
20	5399	48.489750867479	1.467645672491
20	5555	49.95739653997	3.249769937703
20	5859	53.207166477673	1.0139135097667
20	5954	54.22107998744	1.0127419389763
20	6090	55.233821926416	1.0970294002127
20	6200	56.330851326629	1.1412740314789
20	6306	57.472125358108	0.93468090834685
20	6421	58.406806266455	0.31425329838985
20	6467	58.721059564845	3.3500590404358
20	6837	62.071118605281	1.9292030437832
20	7036	64.000321649064	1.3811518483712
20	7187	65.381473497435	0.6736824341289
20	7252	66.055155931564	0.03141949004103
20	7253	66.086575421605	1.5119460212713
20	7369	67.598521442876	0.045300955597779
20	7385	67.643822398474	1.2818623223794
20	7530	68.925684720853	3.5484976800727
20	7937	72.474182400926	2.6437408652714
20	8187	75.117923266197	4.303683150046
20	8643	79.421606416243	3.9383276689557
20	8939	83.359934085199	0.71786027363967
20	9013	84.077794358839	0.61074078876328
20	9066	84.688535147602	0.49721389026044
20	9091	85.185749037862	7.0370406073515
20	9820	92.222789645214	0.15157154129026
20	9848	92.374361186504	0.1432555463363
20	9862	92.51761673284	5.7639241747655
20	10506	98.281540907606	0.29154369500432
20	10532	98.57308460261	3.269194378621
20	10897	101.842278981231	3.9894958798738
20	11339	105.831774861105	1.5846457553707
20	11506	107.416420616476	0.39419397772439
20	11534	107.8106145942	0.019200814893018
20	11535	107.829815409093	1.8550169066885
20	11665	109.684832315782	11.041019139153
20	12781	120.725851454935	2.7117464874247
20	13058	123.43759794236	0.37493275954002
20	13097	123.8125307019	1.6642537195751
20	13259	125.476784421475	0.096955426896495
20	13260	125.573739848371	0.072086285068517
20	13261	125.64582613344	1.4892131278913
20	13493	127.135039261331	0.2575303421278
20	13507	127.392569603459	0.92682575374587
20	13624	128.319395357205	0.61906456449214
20	13678	128.938459921697	0.8349052375993
20	13767	129.773365159296	1.1160745384429
20	13895	130.889439697739	4.514218676356
20	14490	135.403658374095	3.7062944779321
20	14865	139.109952852027	0.19085584935112
20	14887	139.300808701378	3.014764194264
20	15186	142.315572895642	1.7671272430359
20	15349	144.082700138678	2.6106450373914
20	15554	146.693345176069	1.3969401255351
20	15686	148.090285301604	1.1281454021718
20	15842	149.218430703776	2.7883925402463
20	16140	152.006823244022	1.5472326367982
20	16347	153.55405588082	0.45958899371842
20	16411	154.013644874538	1.8700353915246
20	16674	155.883680266063	4.5869495467514
20	17123	160.470629812814	0.20683349503256
20	17160	160.677463307847	1.3796202413522
20	17356	162.057083549199	0.85856084905717
20	17483	162.915644398256	0.050778334830515
20	17492	162.966422733087	3.6019730828226
20	17864	166.56839581591	0.96508592979175
20	17940	167.533481745702	1.3793375459791
20	18099	168.912819291681	0.02710742699994
20	18100	168.939926718681	2.7090311973023
20	18393	171.648957915983	0.98409060378022
20	18524	172.633048519763	0.58737549764406
20	18600	173.220424017407	0.16707604237488
20	18625	173.387500059782	2.1969059148492
20	18905	175.584405974631	1.1035545317224
20	19027	176.687960506353	0.68166571887164
20	19086	177.369626225225	1.861266966245
20	19283	179.23089319147	6.1808826215186
20	19854	185.411775812989	1.7374124724586
20	19998	187.149188285448	3.490157890396
20	20303	190.639346175844	4.9442605663989
20	20820	195.583606742243	0.35757365337059
20	20840	195.941180395614	0.045540234303354
20	20850	195.986720629917	6.7271073052775
20	21620	202.713827935194	0.50528553967289
20	21706	203.219113474867	1.2011960488192
20	21846	204.420309523686	2.5109041930411
20	22107	206.931213716727	0.2900923520789
20	22142	207.221306068806	1.8788491709031
20	22397	209.100155239709	1.546375960842
20	22558	210.646531200551	1.1202817228484
20	22657	211.766812923399	1.1625218983501
20	22807	212.929334821749	4.4668397144929
20	23356	217.396174536242	9.4979676464965
20	24472	226.894142182739	2.0317663297785
20	24705	228.925908512518	3.9156872517639
20	25105	232.841595764282	0.69098577169947
20	25184	233.532581535981	1.7820919340002
20	25450	235.314673469981	5.7745819346707
20	26217	241.089255404652	0.74755948343906
20	26327	241.836814888091	1.2121940712274
20	26439	243.049008959318	0.4985945315531
20	26484	243.547603490871	0.75946288668798
20	26553	244.307066377559	1.4184630353983
20	26698	245.725529412957	0.90873303409565
20	26784	246.634262447053	1.3636494967014
20	26956	247.997911943754	1.2129214212498
20	27105	249.210833365004	1.2231593004523
20	27242	250.433992665456	3.4788464505498
20	27571	253.912839116006	2.8725524504895
20	27836	256.785391566495	3.0110438390114
20	28171	259.796435405506	0.41835519890583
20	28242	260.214790604412	0.49438637494411
20	28264	260.709176979356	2.1371448821872
20	28518	262.846321861543	2.2264437015285
20	28749	265.072765563071	2.7386274931837
20	29047	267.811393056255	5.2733734635616
20	29640	273.084766519817	3.0172503948507
20	30009	276.102016914668	4.430311655091
20	30496	280.532328569759	6.101343676974
20	31196	286.633672246733	4.9934900750484
20	31710	291.627162321781	1.8226952070008
20	31926	293.449857528782	0.91548271406392
20	32040	294.365340242846	0.69633767474767
20	32121	295.061677917594	3.5218534326241
20	32546	298.583531350218	0.38862190467202
20	32592	298.97215325489	4.6572619526171
20	33043	303.629415207507	5.229110524121
20	33666	308.858525731628	2.4726936780148
20	33924	311.331219409643	3.0590447250379
20	34261	314.390264134681	0.073383632148469
20	34272	314.463647766829	0.45779096091128
20	34316	314.92143872774	3.3358444973217
20	34674	318.257283225062	2.34780598731
20	34977	320.605089212372	2.3249685441662
20	35262	322.930057756538	3.4583946229372
20	35714	326.388452379475	2.1368521091893
20	35963	328.525304488664	2.1145013519492
20	36150	330.639805840613	0.20942758927803
20	36167	330.849233429891	0.74745069155078
20	36273	331.596684121442	0.11832727077107
20	36288	331.715011392213	7.5321576743543
20	36909	339.247169066567	0.34772355136852
20	36954	339.594892617936	1.3904431892891
20	37128	340.985335807225	4.3728558257044
20	37498	345.358191632929	0.5769404482357
20	37545	345.935132081165	2.0821230113516
20	37814	348.017255092517	0.3007038426725
20	37827	348.31795893519	1.178752052038
20	37952	349.496710987228	3.5591582067509
20	38346	353.055869193979	3.7701030874238
20	38729	356.825972281403	0.90312420228769
20	38815	357.729096483691	1.4433123811652
20	38965	359.172408864856	0.49806846595343
20	39007	359.670477330809	0.93954443355188
20	39145	360.610021764361	0.26081289263217
20	39184	360.870834656993	6.4079350643429
20	39964	367.278769721336	2.5689363725741
20	40243	369.84770609391	2.9949208012948
20	40551	372.842626895205	2.5810058647877
20	40835	375.423632759993	0.12982296112918
20	40841	375.553455721122	2.0608175420298
20	41032	377.614273263152	0.022852038326612
20	41033	377.637125301479	0.23570289932833
20	41041	377.872828200807	3.8202026158109
20	41505	381.693030816618	1.1783639082805
20	41622	382.871394724898	0.74118169147901
20	41711	383.612576416377	1.1591844844209
20	41832	384.771760900798	0.93856237460926
20	41951	385.710323275407	0.3089322182305
20	41981	386.019255493637	2.9028016588155
20	42279	388.922057152453	1.5723153519616
20	42451	390.494372504415	3.6259500672873
20	42782	394.120322571702	0.098313982486149
20	42798	394.218636554188	1.0487134479157
20	42904	395.267350002104	0.76573984669446
20	42962	396.033089848798	2.8503445001959
20	43323	398.883434348994	1.4633006596091
21	2523	22.96501778253	2.1087280249553
21	2780	25.073745807485	0.68356226750096
21	2896	25.757308074986	0.31286120317654
21	2924	26.070169278163	0.67673153381453
21	3003	26.746900811978	0.21232803870146
21	3018	26.959228850679	3.1604271099395
21	3417	30.119655960618	2.8779440640441
21	3729	32.997600024662	1.1192224630166
21	3831	34.116822487679	0.65456993209692
21	3913	34.771392419776	1.366979569116
21	4013	36.138371988892	0.46028753300373
21	4045	36.598659521896	1.158389012519
21	4177	37.757048534415	2.163298969347
21	4396	39.920347503762	1.3391899158085
21	4521	41.25953741957	1.5057271264241
21	4690	42.765264545994	0.72838385388226
21	4769	43.493648399876	0.51080094844255
21	4834	44.004449348319	1.549288446463
21	4973	45.553737794782	1.8897627427401
21	5254	47.443500537522	2.2959116165202
21	5533	49.739412154042	1.0953871905403
21	5640	50.834799344582	0.015630675103013
21	5641	50.850430019685	0.24420248888742
21	5676	51.094632508572	6.4515980833477
21	6320	57.54623059192	2.115154667865
21	6580	59.661385259785	1.2534210933939
21	6688	60.914806353179	0.51777265190645
21	6742	61.432579005085	2.0429305239267
21	6977	63.475509529012	2.0282839458952
21	7188	65.503793474907	4.5423255149446
21	7667	70.046118989852	0.40703399289039
21	7703	70.453152982742	0.54087200633318
21	7759	70.994024989075	0.10371276115301
21	7790	71.097737750228	1.4985109969718
21	7943	72.5962487472	3.6298774532065
21	8288	76.226126200406	2.3698684628093
21	8529	78.595994663215	0.9357131332801
21	8651	79.531707796495	0.70657486983938
21	8719	80.238282666334	2.4550535282893
21	8880	82.693336194623	2.0111929130376
21	9069	84.704529107661	0.36305801172562
21	9084	85.067587119387	0.46848991328003
21	9124	85.536077032667	0.16511119522176
21	9144	85.701188227889	4.0487955799851
21	9555	89.749983807874	0.76750086990391
21	9655	90.517484677778	0.12092512746969
21	9666	90.638409805248	2.4782490172617
21	9914	93.11665882251	1.4962889269051
21	10053	94.612947749415	2.0942183033951
21	10343	96.70716605281	0.41230104862091
21	10386	97.119467101431	2.4903368685786
21	10646	99.60980397001	6.3412560456443
21	11358	105.951060015654	1.4025808953251
21	11500	107.353640910979	3.3007964160297
21	11802	110.654437327009	0.31708748819054
21	11841	110.9715248152	2.1782144337833
21	12081	113.149739248983	0.35667949215558
21	12116	113.506418741139	3.1096917296965
21	12377	116.616110470835	1.1068470132753
21	12467	117.72295748411	1.7426209581586
21	12660	119.465578442269	2.8939594328841
21	12928	122.359537875153	0.6326770014093
21	13020	122.992214876562	2.2700465407811
21	13247	125.262261417343	0.85717189076851
21	13319	126.119433308112	1.1897717020251
21	13496	127.309205010137	0.68667551797994
21	13586	127.995880528117	0.64937069725341
21	13663	128.64525122537	0.50433440167964
21	13695	129.14958562705	3.4585450297161
21	14141	132.608130656766	0.37060372740628
21	14202	132.978734384172	0.21252483036078
21	14236	133.191259214533	1.9013973499091
21	14460	135.092656564442	3.0766688086107
21	14785	138.169325373053	1.3532691560674
21	14904	139.52259452912	2.9307025473752
21	15197	142.453297076495	0.48306014179643
21	15248	142.936357218291	1.1299083337008
21	15348	144.066265551992	4.9911761587173
21	15818	149.057441710709	0.69646857781416
21	15896	149.753910288523	3.5677415670715
21	16331	153.321651855595	1.7411550809885
21	16534	155.062806936584	0.46928214132721
21	16608	155.532089077911	0.26124841420636
21	16660	155.793337492117	1.9950633599742
21	16867	157.788400852091	0.62969607842161
21	16941	158.418096930513	0.77854849029966
21	17000	159.196645420813	3.4428617292779
21	17454	162.639507150091	1.9394712119113
21	17655	164.578978362002	0.49838311225576
21	17718	165.077361474258	1.2380763005161
21	17837	166.315437774774	0.58922225719396
21	17909	166.904660031968	2.3321149445519
21	18130	169.23677497652	4.4251161056853
21	18646	173.661891082205	1.7215548445263
21	18874	175.383445926731	1.5237224454862
21	19058	176.907168372217	0.8862690571904
21	19123	177.793437429407	0.32034926512542
21	19142	178.113786694532	0.02682245225263
21	19143	178.140609146785	5.7264275763689
21	19677	183.867036723154	1.4829106814201
21	19845	185.349947404574	5.2083479596607
21	20295	190.558295364235	3.3306592752515
21	20644	193.888954639487	0.11203728999299
21	20650	194.00099192948	2.9458086381848
21	20934	196.946800567665	5.7587110880659
21	21619	202.705511655731	3.7872362075066
21	22060	206.492747863238	4.038320319036
21	22556	210.531068182274	1.1984212230371
21	22655	211.729489405311	0.40062150078933
21	22698	212.1301109061	2.6927028276507
21	23063	214.822813733751	3.1811729624185
21	23420	218.00398669617	4.5591793568495
21	23977	222.56316605302	5.9084100020632
21	24645	228.471576055083	0.1420913729981
21	24661	228.613667428081	0.52026550624865
21	24718	229.13393293433	0.56474705175922
21	24785	229.698679986089	3.5962386914826
21	25158	233.294918677572	3.5071688314584
21	25678	236.80208750903	1.6022783160022
21	25890	238.404365825032	0.8643830067909
21	26005	239.268748831823	0.13124104907643
21	26020	239.399989880899	17.85159648221
21	27894	257.251586363109	0.42223412232257
21	27937	257.673820485432	0.16810163973105
21	27961	257.841922125163	0.59506107934508
21	28019	258.436983204508	0.37732033700078
21	28047	258.814303541509	0.55747730286676
21	28112	259.371780844376	0.64084010650795
21	28204	260.012620950884	12.175797819697
21	29538	272.188418770581	0.18452983759435
21	29560	272.372948608175	1.8397107735284
21	29786	274.212659381703	1.079548610845
21	29913	275.292207992548	0.13124870315413
21	29930	275.423456695702	0.17007888888594
21	29936	275.593535584588	1.1452089568199
21	30095	276.738744541408	1.4031879082115
21	30272	278.14193244962	3.3522451597182
21	30600	281.494177609338	0.66763882160024
21	30678	282.161816430938	2.0305434330686
21	30917	284.192359864007	4.2158425960391
21	31357	288.408202460046	1.1691267559403
21	31513	289.577329215986	1.5868958341344
21	31673	291.16422505012	0.77172965967757
21	31748	291.935954709798	1.6368550479574
21	31933	293.572809757755	2.3879857745475
21	32238	295.960795532303	0.20124555133565
21	32265	296.162041083639	1.9404667624405
21	32497	298.10250784608	3.7665657022709
21	32839	301.869073548351	2.5515310185437
21	33136	304.420604566895	2.1992529355366
21	33394	306.619857502432	1.6710061742116
21	33560	308.290863676644	0.026882133383202
21	33566	308.317745810027	1.9992845374759
21	33814	310.317030347503	2.6593445510515
21	34097	312.976374898554	0.33128569209215
21	34144	313.307660590646	0.0032733694681186
21	34145	313.310933960114	0.43304683997065
21	34179	313.743980800085	0.16847957702245
21	34191	313.912460377107	2.7042635869675
21	34510	316.616723964074	0.91120785649976
21	34600	317.527931820574	0.41407657065578
21	34641	317.94200839123	0.57552181533793
21	34695	318.517530206568	4.2917869376012
21	35243	322.809317144169	0.3117110328256
21	35287	323.121028176995	2.8006772266374
21	35670	325.921705403632	0.47607242543553
21	35715	326.397777829068	0.73727196209145
21	35795	327.135049791159	4.9927274479824
21	36324	332.127777239141	0.81409004380227
21	36380	332.941867282943	0.013194087156429
21	36383	332.955061370099	1.2559166884587
21	36474	334.210978058558	1.3754213068874
21	36597	335.586399365445	1.9558936605245
21	36790	337.542293025969	2.3326230381552
21	36990	339.874916064124	1.8840971850407
21	37206	341.759013249165	1.1833026634362
21	37331	342.942315912601	7.4961042882198
21	38036	350.438420200821	1.2502405091773
21	38213	351.688660709998	1.713492389008
21	38378	353.402153099006	1.5438916339981
21	38530	354.946044733004	0.10826394837917
21	38532	355.054308681383	4.5516696119917
21	39006	359.605978293375	0.38377266080234
21	39051	359.989750954177	1.7081955813734
21	39265	361.69794653555	2.0669953252422
21	39552	363.764941860792	0.54276587081117
21	39616	364.307707731603	0.89624075514895
21	39711	365.203948486752	1.2198007806808
21	39826	366.423749267433	0.86858939415374
21	39967	367.292338661587	1.7708482983762
21	40144	369.063186959963	2.3662155424355
21	40383	371.429402502398	3.6677366989541
21	40782	375.097139201352	4.8724703842417
21	41340	379.969609585594	0.66867798607205
21	41397	380.638287571666	1.1587401199067
21	41506	381.797027691573	0.14936819932848
21	41519	381.946395890901	0.086830476514242
21	41535	382.033226367415	2.3680536057504
21	41793	384.401279973165	0.046645034346091
21	41795	384.447925007511	0.93515647141085
21	41888	385.383081478922	8.2004187301593
21	42737	393.583500209081	3.5323897234387
21	43100	397.11588993252	2.4495488679748
21	43400	399.565438800495	1.9113203828495

