file 8705511 1614185327                                         
version 2
run Nonmonitoring-exponential-129-20210224-17:48:46-26730
attr configname Nonmonitoring-exponential
attr datetime 20210224-17:48:46
attr experiment Nonmonitoring-exponential
attr inifile aerocom.ini
attr iterationvars $0=10
attr iterationvarsf 10-
attr measurement $0=10
attr network Aerocom
attr processid 26730
attr repetition 29
attr replication #29
attr resultdir results
attr runnumber 129
attr seedset 29
param **.t 2s
param **.k 10ms
param **.X 0.05s
param **.m 1s
param **.tDistribution "\"exponential\""
param **.operationMode 1
param **.s "70 byte"
param **.dimPoolMax 10000
param **.dimPoolMin 8000
param **.nDL 16
param **.nA 1
param **.DLMaxCapacity 0
param **.trasmitting false

vector 0 Aerocom.aircraft[0].packetGenerator arrivalTime:vector ETV
attr "" ""
attr source computeArrivalTime
vector 1 Aerocom.aircraft[0].linkSelector waitingTime:vector ETV
attr "" ""
attr source computeWaitingTime
vector 2 Aerocom.aircraft[0].linkSelector queueLength:vector ETV
attr "" ""
attr source computeQueueLength
vector 3 Aerocom.aircraft[0].dataLink[10] actualCapacity:vector ETV
attr "" ""
attr source computeActualCapacity
vector 4 Aerocom.aircraft[0].linkSelector serviceTime:vector ETV
attr "" ""
attr source computeServiceTime
vector 5 Aerocom.aircraft[0].linkSelector responseTime:vector ETV
attr "" ""
attr source computeResponseTime
vector 6 Aerocom.aircraft[0].dataLink[14] tDistribution:vector ETV
attr "" ""
attr source computeTDistribution
vector 7 Aerocom.aircraft[0].dataLink[10] tDistribution:vector ETV
attr "" ""
attr source computeTDistribution
vector 8 Aerocom.aircraft[0].dataLink[8] tDistribution:vector ETV
attr "" ""
attr source computeTDistribution
vector 9 Aerocom.aircraft[0].dataLink[1] tDistribution:vector ETV
attr "" ""
attr source computeTDistribution
vector 10 Aerocom.aircraft[0].dataLink[12] tDistribution:vector ETV
attr "" ""
attr source computeTDistribution
vector 11 Aerocom.aircraft[0].dataLink[11] tDistribution:vector ETV
attr "" ""
attr source computeTDistribution
vector 12 Aerocom.aircraft[0].dataLink[15] tDistribution:vector ETV
attr "" ""
attr source computeTDistribution
vector 13 Aerocom.aircraft[0].dataLink[2] tDistribution:vector ETV
attr "" ""
attr source computeTDistribution
vector 14 Aerocom.aircraft[0].dataLink[13] tDistribution:vector ETV
attr "" ""
attr source computeTDistribution
vector 15 Aerocom.aircraft[0].dataLink[3] tDistribution:vector ETV
attr "" ""
attr source computeTDistribution
vector 16 Aerocom.aircraft[0].dataLink[5] tDistribution:vector ETV
attr "" ""
attr source computeTDistribution
vector 17 Aerocom.aircraft[0].dataLink[6] tDistribution:vector ETV
attr "" ""
attr source computeTDistribution
vector 18 Aerocom.aircraft[0].dataLink[9] tDistribution:vector ETV
attr "" ""
attr source computeTDistribution
vector 19 Aerocom.aircraft[0].dataLink[7] tDistribution:vector ETV
attr "" ""
attr source computeTDistribution
vector 20 Aerocom.aircraft[0].dataLink[0] tDistribution:vector ETV
attr "" ""
attr source computeTDistribution
vector 21 Aerocom.aircraft[0].dataLink[4] tDistribution:vector ETV
attr "" ""
attr source computeTDistribution
0	3134 1307060 5115 171459 10.033801308688 337.134751505852 32768 5.28651e-07 0.104780817297 327.11488722378 6.5246025514487
1	1310194 1215205 5116 171541 10.033801308688 337.272666901153 32768 0 0.158701191089 487.92905171229 18.624312256418
2	2525399 885594 5116 171541 10.033801308688 337.272666901153 32768 0 22 49085 243239
3	3410993 983441 5116 171541 10.033801308688 337.272666901153 32768 8001 9994 294375391 2652350377197
4	4394434 1437994 5116 171541 10.033801308688 337.272666901153 32768 0.0070042025215129 0.0087489063867017 256.08882398423 2.0074196822263
5	5832428 1307495 5117 171546 10.041640932386 337.281341002764 32768 0.007008410092 0.166742546632 744.0178756965 28.368236036317
0	7139923 261886 171464 204119 337.148688532471 399.986350983815 6424 6.99955e-07 0.133555908076 62.852641976138 1.2312768795931
1	7401809 247533 171546 204121 337.281341002764 399.992905189272 6423 0 0.204443311959 140.87423759497 8.4094355837578
2	7649342 179401 171546 204121 337.281341002764 399.992905189272 6423 0 23 14309 98845
3	7828743 198402 171546 204121 337.281341002764 399.992905189272 6423 8017 9955 56263032 494634022232
4	8027145 287475 171546 204121 337.281341002764 399.992905189272 6423 0.0070316423907584 0.0087314456779344 51.514202436763 0.41465510625732
5	8314620 261854 171551 204121 337.290015104375 399.992905189272 6422 0.007041545116 0.213115264387 192.37386973844 11.151266226607
6	8576474 7979 5202 203970 10.185266696864 399.688766675221 192 0.0065404824920215 14.266930495161 393.63099824647 1579.6344149758
7	8584453 7799 5226 203064 10.267426311519 397.867412307417 188 0.0031546330897169 9.5449933823195 390.12955327323 1517.0987757006
8	8592252 7202 5425 203882 10.600261591213 399.456525607767 174 0.0051087079644068 12.067405243097 391.45594777431 1668.3912703532
9	8599454 8320 5630 204108 10.929255305159 399.972101508456 201 0.018648842642258 11.1252778332 392.96389381476 1522.2855928056
10	8607774 9091 5636 203896 10.940735079356 399.520085034623 214 0.016174679825354 12.837687483002 389.67996221359 1377.408820977
11	8616865 7885 5772 203888 11.294565540966 399.507420149168 186 0.029072865563596 18.907381790476 397.37742613548 1744.747062547
12	8624750 9595 6089 203834 11.970766414915 399.364835552493 226 0.0079927583776338 11.919672887889 388.94894092663 1360.1102397947
13	8634345 8010 6190 203597 12.182486664808 398.953156101268 188 0.0015149791233754 10.855172125487 392.08877414182 1567.6802529334
14	8642355 7440 6233 201393 12.241240509611 394.38814089769 175 0.0014657821481611 11.630974731683 391.33321825262 1802.8823220436
15	8649795 7858 6337 204093 12.41399334152 399.954124685301 185 0.012175585658705 10.912861449045 387.81470618648 1615.7686047679
16	8657653 9294 6464 204038 12.609601146864 399.854172540502 218 0.00081396039838822 8.6773986273413 387.4475947097 1355.5972395235
17	8666947 7373 6726 202517 13.091776164453 396.679732451895 174 0.02213689233805 15.836293940251 390.64253504126 1927.5091866872
18	8674320 7300 7053 200651 13.729788945226 393.048860937351 172 0.00019190542916076 12.914150404257 388.13054648918 1821.323946103
19	8681620 7824 7666 203807 15.023026965126 399.32367721919 184 0.0061441877383299 10.950824154713 385.9798889599 1532.3926150766
20	8689444 8370 8175 203406 16.190207615442 398.523951236224 197 0.0071456171235083 9.7540286953972 384.27408150425 1413.9285108835
21	8697814 7696 8775 203453 17.451528888733 398.603152140656 181 0.0014378450159307 11.043026750102 382.7559670065 1683.4578058323

