file 1752817 1614185374                                         
version 2
run Nonmonitoring-exponential-574-20210224-17:49:33-27092
attr configname Nonmonitoring-exponential
attr datetime 20210224-17:49:33
attr experiment Nonmonitoring-exponential
attr inifile aerocom.ini
attr iterationvars $0=50
attr iterationvarsf 50-
attr measurement $0=50
attr network Aerocom
attr processid 27092
attr repetition 74
attr replication #74
attr resultdir results
attr runnumber 574
attr seedset 74
param **.t 2s
param **.k 50ms
param **.X 0.05s
param **.m 1s
param **.tDistribution "\"exponential\""
param **.operationMode 1
param **.s "70 byte"
param **.dimPoolMax 10000
param **.dimPoolMin 8000
param **.nDL 16
param **.nA 1
param **.DLMaxCapacity 0
param **.trasmitting false

vector 0 Aerocom.aircraft[0].dataLink[4] tDistribution:vector ETV
attr "" ""
attr source computeTDistribution
vector 1 Aerocom.aircraft[0].dataLink[9] tDistribution:vector ETV
attr "" ""
attr source computeTDistribution
vector 2 Aerocom.aircraft[0].packetGenerator arrivalTime:vector ETV
attr "" ""
attr source computeArrivalTime
vector 3 Aerocom.aircraft[0].linkSelector waitingTime:vector ETV
attr "" ""
attr source computeWaitingTime
vector 4 Aerocom.aircraft[0].linkSelector queueLength:vector ETV
attr "" ""
attr source computeQueueLength
vector 5 Aerocom.aircraft[0].dataLink[11] actualCapacity:vector ETV
attr "" ""
attr source computeActualCapacity
vector 6 Aerocom.aircraft[0].linkSelector serviceTime:vector ETV
attr "" ""
attr source computeServiceTime
vector 7 Aerocom.aircraft[0].linkSelector responseTime:vector ETV
attr "" ""
attr source computeResponseTime
vector 8 Aerocom.aircraft[0].dataLink[15] tDistribution:vector ETV
attr "" ""
attr source computeTDistribution
vector 9 Aerocom.aircraft[0].dataLink[11] tDistribution:vector ETV
attr "" ""
attr source computeTDistribution
vector 10 Aerocom.aircraft[0].dataLink[12] tDistribution:vector ETV
attr "" ""
attr source computeTDistribution
vector 11 Aerocom.aircraft[0].dataLink[0] tDistribution:vector ETV
attr "" ""
attr source computeTDistribution
vector 12 Aerocom.aircraft[0].dataLink[13] tDistribution:vector ETV
attr "" ""
attr source computeTDistribution
vector 13 Aerocom.aircraft[0].dataLink[6] tDistribution:vector ETV
attr "" ""
attr source computeTDistribution
vector 14 Aerocom.aircraft[0].dataLink[14] tDistribution:vector ETV
attr "" ""
attr source computeTDistribution
vector 15 Aerocom.aircraft[0].dataLink[7] tDistribution:vector ETV
attr "" ""
attr source computeTDistribution
vector 16 Aerocom.aircraft[0].dataLink[5] tDistribution:vector ETV
attr "" ""
attr source computeTDistribution
vector 17 Aerocom.aircraft[0].dataLink[3] tDistribution:vector ETV
attr "" ""
attr source computeTDistribution
vector 18 Aerocom.aircraft[0].dataLink[10] tDistribution:vector ETV
attr "" ""
attr source computeTDistribution
vector 19 Aerocom.aircraft[0].dataLink[2] tDistribution:vector ETV
attr "" ""
attr source computeTDistribution
vector 20 Aerocom.aircraft[0].dataLink[8] tDistribution:vector ETV
attr "" ""
attr source computeTDistribution
vector 21 Aerocom.aircraft[0].dataLink[1] tDistribution:vector ETV
attr "" ""
attr source computeTDistribution
0	3134 6903 1086 43276 10.019942680039 398.384338988415 170 0.00091754268586235 12.630829003139 390.19296112262 1697.7646845952
1	10037 8253 1087 42785 10.08873705372 393.191199274863 202 0.0040109256063666 10.981757302942 391.20213598971 1674.3194043341
2	18290 308984 1088 43459 10.197374955721 399.987010941401 7854 1.335977e-06 0.502422526627 389.83589755754 38.932464325085
3	327274 223439 1089 43460 10.197374955721 399.987010941401 7854 0 0.024809644708 5.867332404128 0.040978392641728
4	550713 207706 1089 43460 10.197374955721 399.987010941401 7854 0 2 126 146
5	758419 231268 1089 43460 10.197374955721 399.987010941401 7854 8007 9983 70373297 632052587383
6	989687 340232 1089 43460 10.197374955721 399.987010941401 7854 0.0070119202644496 0.0087423504433621 61.504454567434 0.48279334003313
7	1329919 308947 1090 43461 10.205429264776 399.994580145553 7854 0.007011920264 0.033378624999 67.3717869715 0.61607606981348
8	1638866 7466 1108 42906 10.34326625668 394.394109335252 183 0.010559173689424 21.271447576513 390.74679347711 1901.6844166878
9	1646332 8667 1124 43376 10.501611725967 398.995621785419 212 0.00031531899057213 10.587519863935 390.1704919591 1459.2292593704
10	1654999 8142 1130 43133 10.568812504692 397.356677048637 195 0.013530669041054 10.725245939854 390.23087465169 1506.8236968009
11	1663141 9426 1141 43192 10.832130824334 397.81378479051 225 0.0015164973980671 8.7668466238714 391.03993954963 1267.0065323275
12	1672567 8130 1142 43217 10.866576718538 398.017343911525 195 0.0081925001210907 10.921682344487 395.68650346996 1518.4469840419
13	1680697 7847 1143 42988 10.896906007702 395.505310442081 188 0.0012566799637397 11.081279009782 392.14616402771 1625.0983520752
14	1688544 8360 1174 42890 11.267777884365 394.177588119848 200 0.0080201471715377 10.703432649979 390.33223218538 1505.0217073144
15	1696904 9025 1237 43320 11.93301428302 398.616693923117 216 0.00068986111878547 9.8570405731699 388.06745458701 1298.2674177368
16	1705929 8043 1353 42772 12.74783004412 392.900553981267 192 0.014149037659603 15.725545138039 387.60616459646 1774.7961450065
17	1713972 9241 1377 43208 12.849798022271 397.899659004495 221 0.0063585538200987 12.222733933652 397.27259491587 1460.3218521065
18	1723213 7777 1447 43423 13.433374239355 399.690546642433 186 0.0034481541268312 10.905110240269 388.76370750219 1610.0308213614
19	1730990 7740 1567 42402 14.73458539793 388.645049785052 185 0.010128076779014 12.975409626077 386.8858740132 1650.4418429943
20	1738730 6794 2030 43402 18.828864083301 399.262947121633 163 0.019000003201024 19.122612746226 382.65384972025 1919.7588871575
21	1745524 7292 2211 43258 20.309139031072 398.240261612231 175 0.01504249046071 10.654071438778 381.49851203092 1545.6948907081

