file 4212997 1614185364                                         
version 2
run Nonmonitoring-exponential-422-20210224-17:49:23-26961
attr configname Nonmonitoring-exponential
attr datetime 20210224-17:49:23
attr experiment Nonmonitoring-exponential
attr inifile aerocom.ini
attr iterationvars $0=20
attr iterationvarsf 20-
attr measurement $0=20
attr network Aerocom
attr processid 26961
attr repetition 22
attr replication #22
attr resultdir results
attr runnumber 422
attr seedset 22
param **.t 2s
param **.k 20ms
param **.X 0.05s
param **.m 1s
param **.tDistribution "\"exponential\""
param **.operationMode 1
param **.s "70 byte"
param **.dimPoolMax 10000
param **.dimPoolMin 8000
param **.nDL 16
param **.nA 1
param **.DLMaxCapacity 0
param **.trasmitting false

vector 0 Aerocom.aircraft[0].packetGenerator arrivalTime:vector ETV
attr "" ""
attr source computeArrivalTime
vector 1 Aerocom.aircraft[0].linkSelector waitingTime:vector ETV
attr "" ""
attr source computeWaitingTime
vector 2 Aerocom.aircraft[0].linkSelector queueLength:vector ETV
attr "" ""
attr source computeQueueLength
vector 3 Aerocom.aircraft[0].dataLink[5] actualCapacity:vector ETV
attr "" ""
attr source computeActualCapacity
vector 4 Aerocom.aircraft[0].linkSelector serviceTime:vector ETV
attr "" ""
attr source computeServiceTime
vector 5 Aerocom.aircraft[0].dataLink[6] tDistribution:vector ETV
attr "" ""
attr source computeTDistribution
vector 6 Aerocom.aircraft[0].linkSelector responseTime:vector ETV
attr "" ""
attr source computeResponseTime
vector 7 Aerocom.aircraft[0].dataLink[8] tDistribution:vector ETV
attr "" ""
attr source computeTDistribution
vector 8 Aerocom.aircraft[0].dataLink[10] tDistribution:vector ETV
attr "" ""
attr source computeTDistribution
vector 9 Aerocom.aircraft[0].dataLink[13] tDistribution:vector ETV
attr "" ""
attr source computeTDistribution
vector 10 Aerocom.aircraft[0].dataLink[12] tDistribution:vector ETV
attr "" ""
attr source computeTDistribution
vector 11 Aerocom.aircraft[0].dataLink[11] tDistribution:vector ETV
attr "" ""
attr source computeTDistribution
vector 12 Aerocom.aircraft[0].dataLink[4] tDistribution:vector ETV
attr "" ""
attr source computeTDistribution
vector 13 Aerocom.aircraft[0].dataLink[2] tDistribution:vector ETV
attr "" ""
attr source computeTDistribution
vector 14 Aerocom.aircraft[0].dataLink[1] tDistribution:vector ETV
attr "" ""
attr source computeTDistribution
vector 15 Aerocom.aircraft[0].dataLink[3] tDistribution:vector ETV
attr "" ""
attr source computeTDistribution
vector 16 Aerocom.aircraft[0].dataLink[0] tDistribution:vector ETV
attr "" ""
attr source computeTDistribution
vector 17 Aerocom.aircraft[0].dataLink[15] tDistribution:vector ETV
attr "" ""
attr source computeTDistribution
vector 18 Aerocom.aircraft[0].dataLink[7] tDistribution:vector ETV
attr "" ""
attr source computeTDistribution
vector 19 Aerocom.aircraft[0].dataLink[5] tDistribution:vector ETV
attr "" ""
attr source computeTDistribution
vector 20 Aerocom.aircraft[0].dataLink[9] tDistribution:vector ETV
attr "" ""
attr source computeTDistribution
vector 21 Aerocom.aircraft[0].dataLink[14] tDistribution:vector ETV
attr "" ""
attr source computeTDistribution
0	3133 766218 2673 102801 10.011055090159 399.996334748644 19399 2.10801e-07 0.190290962318 390.04436007225 15.510008321989
1	769351 612503 2674 102802 10.011055090159 399.996334748644 19399 0 0.054292245258 49.216206050834 0.5393406503263
2	1381854 516227 2674 102802 10.011055090159 399.996334748644 19399 0 6 2483 4057
3	1898081 574424 2674 102802 10.011055090159 399.996334748644 19399 8013 9998 174160756 1568433315216
4	2472505 843409 2674 102802 10.011055090159 399.996334748644 19399 0.007001400280056 0.0087358043179833 151.7239639666 1.1903519634367
5	3315914 7823 2675 102752 10.011219695506 399.850781024021 191 0.020890773226335 11.348541525858 395.31350515319 1687.4844020992
6	3323737 766217 2676 102798 10.018894713857 399.990762462807 19398 0.00700140028 0.062049337457 200.93210457207 2.5065749456756
7	4089954 7894 2699 102507 10.085810656802 398.846191606402 193 0.0018195253167378 9.3822664405665 391.21337159875 1532.0750659518
8	4097848 8358 2702 101149 10.104129270741 393.738604113783 204 0.0086511461051084 10.261926260581 389.96414781945 1509.5195311578
9	4106206 8488 2754 101633 10.415928025634 395.50085855104 207 0.016799434039406 10.235207093219 390.20384805681 1451.22404046
10	4114694 8262 2762 102518 10.432656054541 398.940589265467 197 0.0089651733816418 9.7634692441155 391.69816059194 1446.0025897522
11	4122956 7673 2819 102527 10.687881511027 398.95720967935 183 0.0069686833604385 12.53341213643 391.58745898642 1716.9423543803
12	4130629 8398 2901 102519 11.002533293472 398.941309316621 200 0.0099162863769385 11.335981018673 389.13049458139 1445.7529996352
13	4139027 7703 2924 101354 11.110409993965 394.594872546647 184 0.0065249485977383 9.2003492723457 389.12977889968 1404.4762281021
14	4146730 7754 2958 102327 11.262870415628 398.186546079938 185 0.012595977483041 16.217738558597 389.11481361075 1718.6214421168
15	4154484 8693 3053 102727 11.707188162394 399.777958782954 207 0.010433600414313 11.461730340683 392.47174035101 1420.3114277432
16	4163177 8330 3226 102751 12.17974562822 399.849395225428 198 0.013642419714163 10.361089692399 391.78633835026 1685.3418497127
17	4171507 9008 3264 101913 12.379663474786 396.646812081728 215 0.0053910521357066 8.2405079720384 388.03860278436 1160.9313668602
18	4180515 6962 3434 102283 13.095242337508 398.04723562306 166 0.0061688569952142 13.307067669438 387.82638356886 1939.4563546487
19	4187477 8254 3561 101151 13.641554140196 393.763486899565 197 0.008408980212455 10.33018642223 389.31734534821 1398.4106434872
20	4195731 8402 3732 102182 14.297191009056 397.470267289019 200 0.011343217458969 12.082436323715 389.72003009653 1462.1496408116
21	4204133 8863 5571 102730 20.728655310928 399.805664369378 211 0.00359191255438 10.623562737515 381.22889779559 1311.0547461611

