version 2
run Nonmonitoring-exponential-575-20210224-17:49:34-27092
attr configname Nonmonitoring-exponential
attr datetime 20210224-17:49:34
attr experiment Nonmonitoring-exponential
attr inifile aerocom.ini
attr iterationvars $0=50
attr iterationvarsf 50-
attr measurement $0=50
attr network Aerocom
attr processid 27092
attr repetition 75
attr replication #75
attr resultdir results
attr runnumber 575
attr seedset 75
param **.t 2s
param **.k 50ms
param **.X 0.05s
param **.m 1s
param **.tDistribution "\"exponential\""
param **.operationMode 1
param **.s "70 byte"
param **.dimPoolMax 10000
param **.dimPoolMin 8000
param **.nDL 16
param **.nA 1
param **.DLMaxCapacity 0
param **.trasmitting false

vector 0 Aerocom.aircraft[0].packetGenerator arrivalTime:vector ETV
attr "" ""
attr source computeArrivalTime
vector 1 Aerocom.aircraft[0].linkSelector waitingTime:vector ETV
attr "" ""
attr source computeWaitingTime
vector 2 Aerocom.aircraft[0].linkSelector queueLength:vector ETV
attr "" ""
attr source computeQueueLength
vector 3 Aerocom.aircraft[0].dataLink[14] actualCapacity:vector ETV
attr "" ""
attr source computeActualCapacity
vector 4 Aerocom.aircraft[0].linkSelector serviceTime:vector ETV
attr "" ""
attr source computeServiceTime
vector 5 Aerocom.aircraft[0].linkSelector responseTime:vector ETV
attr "" ""
attr source computeResponseTime
vector 6 Aerocom.aircraft[0].dataLink[1] tDistribution:vector ETV
attr "" ""
attr source computeTDistribution
vector 7 Aerocom.aircraft[0].dataLink[12] tDistribution:vector ETV
attr "" ""
attr source computeTDistribution
vector 8 Aerocom.aircraft[0].dataLink[10] tDistribution:vector ETV
attr "" ""
attr source computeTDistribution
vector 9 Aerocom.aircraft[0].dataLink[2] tDistribution:vector ETV
attr "" ""
attr source computeTDistribution
vector 10 Aerocom.aircraft[0].dataLink[4] tDistribution:vector ETV
attr "" ""
attr source computeTDistribution
vector 11 Aerocom.aircraft[0].dataLink[8] tDistribution:vector ETV
attr "" ""
attr source computeTDistribution
vector 12 Aerocom.aircraft[0].dataLink[3] tDistribution:vector ETV
attr "" ""
attr source computeTDistribution
vector 13 Aerocom.aircraft[0].dataLink[11] tDistribution:vector ETV
attr "" ""
attr source computeTDistribution
vector 14 Aerocom.aircraft[0].dataLink[7] tDistribution:vector ETV
attr "" ""
attr source computeTDistribution
vector 15 Aerocom.aircraft[0].dataLink[5] tDistribution:vector ETV
attr "" ""
attr source computeTDistribution
vector 16 Aerocom.aircraft[0].dataLink[9] tDistribution:vector ETV
attr "" ""
attr source computeTDistribution
vector 17 Aerocom.aircraft[0].dataLink[6] tDistribution:vector ETV
attr "" ""
attr source computeTDistribution
vector 18 Aerocom.aircraft[0].dataLink[0] tDistribution:vector ETV
attr "" ""
attr source computeTDistribution
vector 19 Aerocom.aircraft[0].dataLink[15] tDistribution:vector ETV
attr "" ""
attr source computeTDistribution
vector 20 Aerocom.aircraft[0].dataLink[14] tDistribution:vector ETV
attr "" ""
attr source computeTDistribution
vector 21 Aerocom.aircraft[0].dataLink[13] tDistribution:vector ETV
attr "" ""
attr source computeTDistribution
0	977	10.018448158724	0.06232714704
0	982	10.080775305764	0.072570486127
0	987	10.153345791891	0.083000810475
0	994	10.236346602366	0.008494228849
0	999	10.244840831215	0.023773686586
0	1004	10.268614517801	0.092223015865
0	1010	10.360837533666	0.000396990474
0	1012	10.36123452414	0.254389069609
0	1022	10.615623593749	0.009149376093
0	1027	10.624772969842	0.023688512529
0	1032	10.648461482371	0.085041085962
0	1037	10.733502568333	0.019796002363
0	1042	10.753298570696	0.010969476329
0	1047	10.764268047025	0.064382142455
0	1052	10.82865018948	0.010581103398
0	1057	10.839231292878	0.004915514555
0	1059	10.844146807433	0.009404878714
0	1064	10.853551686147	0.052907527305
0	1074	10.906459213452	0.129451072697
0	1080	11.035910286149	0.028680560084
0	1085	11.064590846233	0.010319715313
0	1090	11.074910561546	0.008007259589
0	1092	11.082917821135	0.089152053872
0	1100	11.172069875007	0.021080773301
0	1105	11.193150648308	0.101018576845
0	1111	11.294169225153	0.086908422872
0	1116	11.381077648025	0.05155485019
0	1121	11.432632498215	0.05312436065
0	1126	11.485756858865	0.02918466362
0	1131	11.514941522485	0.005519851811
0	1133	11.520461374296	0.035902594423
0	1141	11.556363968719	0.003869208039
0	1143	11.560233176758	0.007348268282
0	1148	11.56758144504	0.031638208409
0	1156	11.599219653449	0.013607705778
0	1161	11.612827359227	0.061530302786
0	1168	11.674357662013	0.039112919602
0	1173	11.713470581615	0.020999554183
0	1178	11.734470135798	0.020149804035
0	1183	11.754619939833	0.111141001704
0	1188	11.865760941537	0.010276052862
0	1193	11.876036994399	0.114916991373
0	1198	11.990953985772	0.110683608545
0	1205	12.101637594317	0.016689212092
0	1210	12.118326806409	0.004991534949
0	1212	12.123318341358	0.114964378223
0	1220	12.238282719581	0.00546944246
0	1222	12.243752162041	0.184179694981
0	1231	12.427931857022	0.047598788156
0	1237	12.475530645178	0.034804604617
0	1242	12.510335249795	0.010993190924
0	1247	12.521328440719	0.007931367038
0	1249	12.529259807757	0.000197036007
0	1254	12.529456843764	0.072788137199
0	1262	12.602244980963	0.096296313519
0	1269	12.698541294482	0.166652500927
0	1276	12.865193795409	0.001555308049
0	1278	12.866749103458	0.082530363882
0	1287	12.94927946734	0.037750716836
0	1292	12.987030184176	0.029355131153
0	1297	13.016385315329	0.041203106002
0	1303	13.057588421331	0.025544913121
0	1308	13.083133334452	0.042639050213
0	1313	13.125772384665	0.109218625366
0	1319	13.234991010031	0.058080056481
0	1324	13.293071066512	0.044889924502
0	1330	13.337960991014	0.072206750204
0	1335	13.410167741218	0.056903744608
0	1341	13.467071485826	0.018685099522
0	1346	13.485756585348	0.020997596351
0	1351	13.506754181699	0.127698842203
0	1356	13.634453023902	0.020136149462
0	1362	13.654589173364	0.106206027352
0	1368	13.760795200716	0.002999886254
0	1370	13.76379508697	0.037027551799
0	1378	13.800822638769	0.045563496978
0	1384	13.846386135747	0.03304257134
0	1389	13.879428707087	0.272242051371
0	1397	14.151670758458	0.054045372745
0	1402	14.205716131203	0.016414499105
0	1407	14.222130630308	0.056389807579
0	1412	14.278520437887	0.167823704453
0	1417	14.44634414234	0.005153832226
0	1419	14.451497974566	0.147655681539
0	1428	14.599153656105	0.111973992473
0	1435	14.711127648578	0.002137448398
0	1437	14.713265096976	0.054153103744
0	1446	14.76741820072	0.03072915516
0	1451	14.79814735588	0.037688050666
0	1456	14.835835406546	0.037468790255
0	1462	14.873304196801	0.037151720099
0	1467	14.9104559169	0.06755293641
0	1472	14.97800885331	0.023204630183
0	1477	15.001213483493	0.054276194542
0	1483	15.055489678035	0.027479037907
0	1488	15.082968715942	0.010884295695
0	1493	15.093853011637	0.019692708101
0	1498	15.113545719738	0.010069387654
0	1504	15.123615107392	0.012400531962
0	1509	15.136015639354	0.006966636503
0	1511	15.142982275857	0.009826131607
0	1520	15.152808407464	0.138296424027
0	1528	15.291104831491	0.02849493913
0	1534	15.319599770621	0.096143639405
0	1540	15.415743410026	0.009090311962
0	1545	15.424833721988	0.019308714863
0	1550	15.444142436851	0.032117128562
0	1556	15.476259565413	0.099994307481
0	1562	15.576253872894	0.031740031231
0	1567	15.607993904125	0.001304336269
0	1569	15.609298240394	0.00103481761
0	1571	15.610333058004	0.058404381617
0	1582	15.668737439621	0.035451964696
0	1587	15.704189404317	0.015318556449
0	1592	15.719507960766	0.099916592722
0	1597	15.819424553488	0.003108781015
0	1599	15.822533334503	0.050851088011
0	1608	15.873384422514	0.137391254298
0	1614	16.010775676812	0.119690363309
0	1619	16.130466040121	0.109470623746
0	1624	16.239936663867	0.047925558412
0	1629	16.287862222279	0.057445836778
0	1635	16.345308059057	0.029840426354
0	1640	16.375148485411	0.009458906054
0	1645	16.384607391465	0.000319006726
0	1647	16.384926398191	0.239573534521
0	1657	16.624499932712	0.123958455256
0	1666	16.748458387968	0.001791894995
0	1668	16.750250282963	0.065027304632
0	1676	16.815277587595	0.045475164261
0	1681	16.860752751856	0.015060081515
0	1686	16.875812833371	0.014234621691
0	1691	16.890047455062	0.111873796563
0	1696	17.001921251625	0.109375409075
0	1701	17.1112966607	0.034420168756
0	1706	17.145716829456	0.041551747405
0	1711	17.187268576861	0.054117846409
0	1716	17.24138642327	0.110010848344
0	1721	17.351397271614	0.000875844246
0	1723	17.35227311586	0.065930467074
0	1731	17.418203582934	0.006940086285
0	1733	17.425143669219	0.030422781453
0	1741	17.455566450672	0.044202392017
0	1746	17.499768842689	0.037609090558
0	1751	17.537377933247	0.087888521847
0	1756	17.625266455094	0.131445805634
0	1761	17.756712260728	0.011916634576
0	1766	17.768628895304	0.012966967398
0	1771	17.781595862702	0.035888364293
0	1777	17.817484226995	0.030801497252
0	1782	17.848285724247	0.006115343043
0	1784	17.85440106729	0.01912354126
0	1792	17.87352460855	0.010069588805
0	1797	17.883594197355	0.017577104939
0	1802	17.901171302294	0.077200099364
0	1809	17.978371401658	0.039284866668
0	1814	18.017656268326	0.030881720794
0	1819	18.04853798912	0.053898572347
0	1825	18.102436561467	0.05187501808
0	1830	18.154311579547	0.056743956542
0	1836	18.211055536089	0.060609131316
0	1842	18.271664667405	0.092355104324
0	1849	18.364019771729	0.026498767638
0	1855	18.390518539367	0.055178819133
0	1860	18.4456973585	0.112153703067
0	1865	18.557851061567	0.03503078265
0	1870	18.592881844217	0.025424763968
0	1875	18.618306608185	0.039690816943
0	1880	18.657997425128	0.023715815507
0	1885	18.681713240635	0.000208970215
0	1887	18.68192221085	0.047726574376
0	1896	18.729648785226	0.106138324211
0	1903	18.835787109437	0.076685077936
0	1908	18.912472187373	0.048775224581
0	1913	18.961247411954	0.001553454105
0	1915	18.962800866059	0.114158864394
0	1924	19.076959730453	0.150044370803
0	1932	19.227004101256	0.006921512409
0	1934	19.233925613665	0.094464991548
0	1943	19.328390605213	0.019659715721
0	1948	19.348050320934	0.060956621272
0	1953	19.409006942206	0.006434429673
0	1955	19.415441371879	0.099602570978
0	1963	19.515043942857	0.02263121967
0	1968	19.537675162527	0.003078729164
0	1970	19.540753891691	0.008489818639
0	1975	19.54924371033	0.016682032229
0	1983	19.565925742559	0.080844926811
0	1990	19.64677066937	0.009810027966
0	1995	19.656580697336	0.0497182508
0	2001	19.706298948136	0.065946625051
0	2006	19.772245573187	0.017928202306
0	2011	19.790173775493	0.041717504959
0	2016	19.831891280452	0.011499832356
0	2021	19.843391112808	0.009292491294
0	2026	19.852683604102	0.194607553867
0	2033	20.047291157969	0.059995597079
0	2040	20.107286755048	0.04885062365
0	2045	20.156137378698	0.007111667135
0	2047	20.163249045833	0.067613947351
0	2055	20.230862993184	0.073143717851
0	2063	20.304006711035	0.037667159792
0	2068	20.341673870827	0.033325269429
0	2073	20.374999140256	0.035572480324
0	2078	20.41057162058	0.000831558447
0	2080	20.411403179027	0.020168433094
0	2088	20.431571612121	0.037495290138
0	2093	20.469066902259	0.021202877975
0	2098	20.490269780234	0.001759747287
0	2100	20.492029527521	0.00210573233
0	2102	20.494135259851	0.029616063503
0	2113	20.523751323354	0.049067004144
0	2118	20.572818327498	0.029355182059
0	2123	20.602173509557	0.091284915927
0	2128	20.693458425484	0.072617446182
0	2134	20.766075871666	0.06572855781
0	2139	20.831804429476	0.12280197678
0	2147	20.954606406256	0.085124266406
0	2152	21.039730672662	0.003924675506
0	2154	21.043655348168	0.009262962398
0	2159	21.052918310566	0.03755504579
0	2167	21.090473356356	0.003425692559
0	2169	21.093899048915	0.060374464917
0	2177	21.154273513832	0.06017122567
0	2182	21.214444739502	0.003173192519
0	2184	21.217617932021	0.083600449467
0	2192	21.301218381488	0.105123550042
0	2198	21.40634193153	0.038843301083
0	2203	21.445185232613	0.011115840382
0	2209	21.456301072995	0.028308724253
0	2215	21.484609797248	0.044597095891
0	2220	21.529206893139	0.05011319904
0	2225	21.579320092179	0.036665362577
0	2231	21.615985454756	0.073460504116
0	2237	21.689445958872	0.231258301997
0	2245	21.920704260869	0.031022742665
0	2251	21.951727003534	0.049040188742
0	2256	22.000767192276	0.093733888177
0	2262	22.094501080453	0.066738366034
0	2268	22.161239446487	0.152462955998
0	2274	22.313702402485	0.020175134571
0	2279	22.333877537056	0.07210444349
0	2285	22.405981980546	0.006868602542
0	2287	22.412850583088	0.088409454808
0	2296	22.501260037896	0.029095840474
0	2301	22.53035587837	0.181106389777
0	2310	22.711462268147	0.188641201598
0	2315	22.900103469745	0.112471137067
0	2321	23.012574606812	0.005266919868
0	2323	23.01784152668	0.077799769606
0	2331	23.095641296286	0.102044429066
0	2337	23.197685725352	0.010197148144
0	2342	23.207882873496	0.046087110326
0	2348	23.253969983822	0.018850851932
0	2353	23.272820835754	0.025772054863
0	2359	23.298592890617	0.014329387172
0	2364	23.312922277789	0.030142240017
0	2369	23.343064517806	0.126642579347
0	2376	23.469707097153	0.070936287222
0	2381	23.540643384375	0.022697142147
0	2386	23.563340526522	0.029967531012
0	2391	23.593308057534	0.000355402797
0	2393	23.593663460331	0.009301546312
0	2398	23.602965006643	0.04826475785
0	2407	23.651229764493	0.088043465432
0	2413	23.739273229925	0.136074171556
0	2420	23.875347401481	0.024803962388
0	2425	23.900151363869	0.073467552402
0	2430	23.973618916271	0.039110567282
0	2435	24.012729483553	0.041500109546
0	2440	24.054229593099	0.019376980188
0	2445	24.073606573287	0.023739243598
0	2450	24.097345816885	0.004461897346
0	2452	24.101807714231	0.042620578507
0	2460	24.144428292738	0.011707768907
0	2465	24.156136061645	0.016529115351
0	2470	24.172665176996	0.04688437686
0	2475	24.219549553856	0.17944244397
0	2480	24.398991997826	0.076297449466
0	2485	24.475289447292	0.009660094032
0	2490	24.484949541324	0.010742755439
0	2495	24.495692296763	0.031837856266
0	2500	24.527530153029	0.020278025017
0	2505	24.547808178046	0.047884618996
0	2510	24.595692797042	0.028064675775
0	2515	24.623757472817	0.020805590984
0	2520	24.644563063801	0.026124655732
0	2525	24.670687719533	0.062871523817
0	2530	24.73355924335	0.031693499031
0	2535	24.765252742381	0.10108199389
0	2541	24.866334736271	0.021993177051
0	2546	24.888327913322	0.0100201008
0	2551	24.898348014122	0.019317402386
0	2556	24.917665416508	0.024431070508
0	2562	24.942096487016	0.022915678965
0	2567	24.965012165981	0.040898981299
0	2572	25.00591114728	0.029031252878
0	2577	25.034942400158	0.041078110184
0	2584	25.076020510342	0.044834525991
0	2589	25.120855036333	0.014262551721
0	2594	25.135117588054	8.2258673e-05
0	2596	25.135199846727	0.027257854437
0	2604	25.162457701164	0.154014474267
0	2609	25.316472175431	0.044492999595
0	2614	25.360965175026	0.017542274505
0	2619	25.378507449531	0.141884271089
0	2626	25.52039172062	0.000220281931
0	2628	25.520612002551	0.029462253551
0	2636	25.550074256102	0.10965716946
0	2642	25.659731425562	0.119426772041
0	2650	25.779158197603	0.038140542821
0	2656	25.817298740424	0.051483056753
0	2661	25.868781797177	0.192337795844
0	2666	26.061119593021	0.062046556264
0	2673	26.123166149285	0.147061703748
0	2678	26.270227853033	0.06817945735
0	2683	26.338407310383	0.001110078169
0	2685	26.339517388552	0.035560005861
0	2693	26.375077394413	0.006099185931
0	2695	26.381176580344	0.15091605292
0	2708	26.532092633264	0.047054067616
0	2713	26.57914670088	0.145673905981
0	2718	26.724820606861	0.000616935377
0	2720	26.725437542238	0.059610833096
0	2729	26.785048375334	0.104745030315
0	2735	26.889793405649	0.050807302099
0	2740	26.940600707748	0.060004702412
0	2745	27.00060541016	0.052516710167
0	2750	27.053122120327	0.125722025302
0	2755	27.178844145629	0.001808620523
0	2757	27.180652766152	0.002125189848
0	2759	27.182777956	0.051423450528
0	2770	27.234201406528	0.018143836413
0	2775	27.252345242941	0.110956474637
0	2781	27.363301717578	0.008456316842
0	2784	27.37175803442	0.163937803086
0	2793	27.535695837506	0.264801845021
0	2798	27.800497682527	0.021373794925
0	2803	27.821871477452	0.105684792429
0	2808	27.927556269881	0.056643551785
0	2813	27.984199821666	0.0174045524
0	2818	28.001604374066	0.012562639186
0	2823	28.014167013252	0.019264963027
0	2829	28.033431976279	0.008720172899
0	2834	28.042152149178	0.199434537871
0	2840	28.241586687049	0.126861493937
0	2847	28.368448180986	0.014431643333
0	2852	28.382879824319	0.118132817114
0	2857	28.501012641433	0.067990705727
0	2863	28.56900334716	0.009960570535
0	2868	28.578963917695	0.01679583657
0	2873	28.595759754265	0.222614992932
0	2878	28.818374747197	0.024443467293
0	2884	28.84281821449	0.038509882373
0	2889	28.881328096863	0.021552713225
0	2894	28.902880810088	0.111955783594
0	2900	29.014836593682	0.001075541922
0	2902	29.015912135604	0.128661157329
0	2914	29.144573292933	0.059815498535
0	2919	29.204388791468	0.081828763956
0	2925	29.286217555424	0.108141780715
0	2932	29.394359336139	0.065112912062
0	2938	29.459472248201	0.027980331345
0	2943	29.487452579546	0.221350993685
0	2949	29.708803573231	0.021747206263
0	2954	29.730550779494	0.002990442461
0	2956	29.733541221955	0.025238171887
0	2964	29.758779393842	0.030816879991
0	2969	29.789596273833	0.032145333235
0	2974	29.821741607068	0.051658768594
0	2979	29.873400375662	0.024250792839
0	2984	29.897651168501	0.04047144775
0	2989	29.938122616251	0.020036011848
0	2994	29.958158628099	0.111515343658
0	3000	30.069673971757	0.215455334677
0	3008	30.285129306434	0.048847803201
0	3013	30.333977109635	0.070452185879
0	3018	30.404429295514	0.016698972427
0	3023	30.421128267941	0.038696068512
0	3029	30.459824336453	0.035438003433
0	3034	30.495262339886	0.002591012443
0	3036	30.497853352329	0.022310096921
0	3044	30.52016344925	0.151026308461
0	3051	30.671189757711	0.04537169914
0	3057	30.716561456851	0.025899762313
0	3063	30.742461219164	0.170865885407
0	3071	30.913327104571	0.012943042701
0	3078	30.926270147272	0.044144536158
0	3083	30.97041468343	0.03773920327
0	3088	31.0081538867	0.003639313775
0	3090	31.011793200475	0.013787300445
0	3098	31.02558050092	0.035927321904
0	3103	31.061507822824	0.233425607488
0	3110	31.294933430312	0.208807008523
0	3118	31.503740438835	0.092461579176
0	3124	31.596202018011	0.061647571396
0	3129	31.657849589407	0.034854666595
0	3134	31.692704256002	0.080774439646
0	3140	31.773478695648	0.053033410284
0	3147	31.826512105932	0.024697692909
0	3152	31.851209798841	0.114106864301
0	3157	31.965316663142	0.008032256529
0	3159	31.973348919671	0.036558564253
0	3168	32.009907483924	0.008096866053
0	3170	32.018004349977	0.1284211057
0	3179	32.146425455677	0.17223734581
0	3185	32.318662801487	0.030889469333
0	3191	32.34955227082	0.093737151613
0	3196	32.443289422433	0.287739823397
0	3202	32.73102924583	0.108172575346
0	3207	32.839201821176	0.023288433833
0	3213	32.862490255009	0.013801873179
0	3218	32.876292128188	0.066779794048
0	3225	32.943071922236	0.082319252275
0	3230	33.025391174511	0.00931964445
0	3235	33.034710818961	0.015025582793
0	3240	33.049736401754	0.09140134255
0	3246	33.141137744304	0.149242089857
0	3251	33.290379834161	0.007371534944
0	3253	33.297751369105	0.007161208753
0	3258	33.304912577858	0.049251057419
0	3266	33.354163635277	0.052853968157
0	3273	33.407017603434	0.033838446095
0	3278	33.440856049529	0.001771787993
0	3280	33.442627837522	0.064776601691
0	3288	33.507404439213	0.074721571445
0	3293	33.582126010658	0.020532106441
0	3298	33.602658117099	0.033958902083
0	3303	33.636617019182	0.017558709052
0	3308	33.654175728234	0.009416632968
0	3314	33.663592361202	0.018657513678
0	3319	33.68224987488	0.044301828392
0	3324	33.726551703272	0.009868440311
0	3329	33.736420143583	0.11270055107
0	3336	33.849120694653	0.080232494568
0	3342	33.929353189221	0.01833202615
0	3347	33.947685215371	0.118725041313
0	3353	34.066410256684	0.124895747615
0	3359	34.191306004299	0.021030133889
0	3365	34.212336138188	0.051633327203
0	3370	34.263969465391	0.04400832531
0	3375	34.307977790701	0.046215571615
0	3380	34.354193362316	0.060115934018
0	3385	34.414309296334	0.027562142114
0	3391	34.441871438448	0.020866871943
0	3396	34.462738310391	0.005150728401
0	3398	34.467889038792	0.010607217473
0	3407	34.478496256265	0.011294335751
0	3412	34.489790592016	0.111204325422
0	3419	34.600994917438	0.093534982836
0	3424	34.694529900274	0.093755169994
0	3430	34.788285070268	0.001495080692
0	3432	34.78978015096	0.017479833978
0	3441	34.807259984938	0.056998784801
0	3446	34.864258769739	0.031273287061
0	3451	34.8955320568	0.00691809601
0	3453	34.90245015281	0.001250814054
0	3458	34.903700966864	0.061796126711
0	3466	34.965497093575	0.008194304592
0	3471	34.973691398167	0.106220229465
0	3477	35.079911627632	0.011870477918
0	3482	35.09178210555	0.14783925654
0	3488	35.23962136209	0.095155432023
0	3496	35.334776794113	0.046810311283
0	3502	35.381587105396	0.012558674513
0	3507	35.394145779909	0.105135973048
0	3513	35.499281752957	0.0090308138
0	3518	35.508312566757	0.105844595423
0	3524	35.61415716218	0.058073485262
0	3529	35.672230647442	0.030177310018
0	3535	35.70240795746	0.004170712367
0	3537	35.706578669827	0.01518700485
0	3545	35.721765674677	0.015342757717
0	3550	35.737108432394	0.007711753072
0	3555	35.744820185466	0.00361614223
0	3557	35.748436327696	0.007324517198
0	3562	35.755760844894	0.030010710274
0	3570	35.785771555168	0.101001227056
0	3575	35.886772782224	0.00462002327
0	3577	35.891392805494	0.011463116717
0	3585	35.902855922211	0.060177789256
0	3590	35.963033711467	0.193465367376
0	3597	36.156499078843	0.04855670619
0	3602	36.205055785033	0.028431035799
0	3608	36.233486820832	0.012867103884
0	3613	36.246353924716	0.007029143523
0	3615	36.253383068239	0.052224062803
0	3624	36.305607131042	0.067356719182
0	3629	36.372963850224	0.028966569308
0	3634	36.401930419532	0.00849198748
0	3639	36.410422407012	0.015237176247
0	3644	36.425659583259	0.055735395291
0	3649	36.48139497855	0.1195004121
0	3656	36.60089539065	0.069520248569
0	3661	36.670415639219	0.072199703469
0	3666	36.742615342688	0.037642163464
0	3671	36.780257506152	0.060916492183
0	3677	36.841173998335	0.006548964483
0	3679	36.847722962818	0.012437863748
0	3687	36.860160826566	0.002588437246
0	3689	36.862749263812	0.146754650595
0	3697	37.009503914407	0.024292645259
0	3702	37.033796559666	0.186069743871
0	3709	37.219866303537	0.06774055997
0	3714	37.287606863507	0.001507347222
0	3716	37.289114210729	0.000509705415
0	3718	37.289623916144	0.09671155343
0	3730	37.386335469574	0.016492648601
0	3735	37.402828118175	0.118223686156
0	3742	37.521051804331	0.026118250475
0	3747	37.547170054806	0.0322641123
0	3752	37.579434167106	0.016357061599
0	3757	37.595791228705	0.059241229239
0	3765	37.655032457944	0.33650723171
0	3773	37.991539689654	0.09173039653
0	3780	38.083270086184	0.019574976574
0	3786	38.102845062758	0.119688885079
0	3793	38.222533947837	0.0062453024
0	3795	38.228779250237	0.063224057425
0	3803	38.292003307662	0.009168289064
0	3808	38.301171596726	0.066074417548
0	3814	38.367246014274	0.007903940243
0	3819	38.375149954517	0.112747448002
0	3825	38.487897402519	0.041603433111
0	3830	38.52950083563	0.080244329311
0	3837	38.609745164941	0.019854857643
0	3842	38.629600022584	0.013082243358
0	3847	38.642682265942	0.083971682224
0	3853	38.726653948166	0.039639844587
0	3858	38.766293792753	0.006707064509
0	3860	38.773000857262	0.107021484015
0	3869	38.880022341277	0.095802588762
0	3876	38.975824930039	0.073013420602
0	3884	39.048838350641	0.084009191251
0	3889	39.132847541892	0.003232883499
0	3891	39.136080425391	0.298078800973
0	3900	39.434159226364	0.134272324032
0	3910	39.568431550396	0.036465624599
0	3916	39.604897174995	0.042857599155
0	3921	39.64775477415	0.066351162541
0	3926	39.714105936691	0.007705759161
0	3929	39.721811695852	0.057123277767
0	3937	39.778934973619	0.057219862698
0	3944	39.836154836317	0.044024327607
0	3949	39.880179163924	0.033966213865
0	3954	39.914145377789	0.087625724254
0	3959	40.001771102043	0.011739141558
0	3964	40.013510243601	0.196631743282
0	3969	40.210141986883	0.088880551822
0	3975	40.299022538705	0.019832930242
0	3981	40.318855468947	0.016932541722
0	3986	40.335788010669	0.06514539557
0	3992	40.400933406239	0.012349065445
0	3997	40.413282471684	0.066331113899
0	4003	40.479613585583	0.03201250339
0	4008	40.511626088973	0.004792377576
0	4010	40.516418466549	0.006813894878
0	4015	40.523232361427	0.013465752402
0	4023	40.536698113829	0.043520812201
0	4028	40.58021892603	0.159200568195
0	4034	40.739419494225	0.220771265589
0	4042	40.960190759814	0.02251016228
0	4047	40.982700922094	0.204740915578
0	4053	41.187441837672	0.001268072232
0	4055	41.188709909904	0.097815137675
0	4064	41.286525047579	0.022748576616
0	4070	41.309273624195	0.105157129896
0	4077	41.414430754091	0.021023396855
0	4083	41.435454150946	0.001758332031
0	4085	41.437212482977	0.053845481121
0	4093	41.491057964098	0.035523454102
0	4098	41.5265814182	0.004755034456
0	4100	41.531336452656	0.111367935613
0	4111	41.642704388269	0.00834370345
0	4116	41.651048091719	0.008182635726
0	4121	41.659230727445	0.0166194355
0	4126	41.675850162945	0.011620593683
0	4131	41.687470756628	0.014631559757
0	4137	41.702102316385	0.002108019867
0	4139	41.704210336252	0.000203595765
0	4141	41.704413932017	0.005292329305
0	4146	41.709706261322	0.009384060395
0	4151	41.719090321717	0.059697067348
0	4162	41.778787389065	0.064698350026
0	4168	41.843485739091	0.02272252901
0	4173	41.866208268101	0.009299479267
0	4178	41.875507747368	0.065759749818
0	4184	41.941267497186	0.083170206587
0	4189	42.024437703773	0.060363667987
0	4195	42.08480137176	0.067507517316
0	4200	42.152308889076	0.073470220503
0	4205	42.225779109579	0.141812442708
0	4211	42.367591552287	0.053706632526
0	4216	42.421298184813	0.025544615815
0	4222	42.446842800628	0.118426280306
0	4228	42.565269080934	0.03266849169
0	4233	42.597937572624	0.045413057455
0	4238	42.643350630079	0.077478781731
0	4243	42.72082941181	0.004255057334
0	4245	42.725084469144	0.046074560888
0	4254	42.771159030032	0.009453718265
0	4259	42.780612748297	0.025843655269
0	4265	42.806456403566	0.073831156215
0	4272	42.880287559781	0.078220804008
0	4279	42.958508363789	0.075199310076
0	4284	43.033707673865	0.045264774905
0	4289	43.07897244877	0.012509332135
0	4294	43.091481780905	0.012898917203
0	4299	43.104380698108	0.015244571529
0	4304	43.119625269637	0.01358650204
0	4309	43.133211771677	0.074471481678
0	4314	43.207683253355	0.003739251003
0	4316	43.211422504358	0.024894024839
0	4325	43.236316529197	0.111075450555
0	4330	43.347391979752	0.046301296681
0	4335	43.393693276433	0.004366574035
0	4337	43.398059850468	0.046374579384
0	4345	43.444434429852	0.044976518907
0	4350	43.489410948759	0.047724083615
0	4355	43.537135032374	0.001062357224
0	4357	43.538197389598	0.068088046625
0	4366	43.606285436223	0.025642029112
0	4371	43.631927465335	0.043750488954
0	4376	43.675677954289	0.089707609142
0	4382	43.765385563431	0.022454515199
0	4387	43.78784007863	0.043143257411
0	4392	43.830983336041	0.07100015983
0	4397	43.901983495871	0.092256628726
0	4403	43.994240124597	0.000368192287
0	4405	43.994608316884	0.039760793991
0	4413	44.034369110875	0.061972246206
0	4418	44.096341357081	0.017109476836
0	4424	44.113450833917	0.129517567127
0	4432	44.242968401044	0.032240275807
0	4437	44.275208676851	0.002001765443
0	4439	44.277210442294	0.067411806921
0	4447	44.344622249215	0.075342889027
0	4454	44.419965138242	0.101785886138
0	4461	44.52175102438	0.101559467881
0	4468	44.623310492261	0.022865356696
0	4473	44.646175848957	0.007614080032
0	4476	44.653789928989	0.048839400104
0	4484	44.702629329093	0.05872856435
0	4490	44.761357893443	0.021674401004
0	4495	44.783032294447	0.012715935437
0	4501	44.795748229884	0.017840314337
0	4506	44.813588544221	0.033946716173
0	4511	44.847535260394	0.006049401941
0	4513	44.853584662335	0.254230116964
0	4522	45.107814779299	0.026823718159
0	4527	45.134638497458	0.059503171676
0	4532	45.194141669134	0.012676976939
0	4537	45.206818646073	0.217723234928
0	4542	45.424541881001	0.005573222467
0	4544	45.430115103468	0.053735305088
0	4552	45.483850408556	0.169994612655
0	4557	45.653845021211	0.027700825467
0	4562	45.681545846678	0.158484805676
0	4567	45.840030652354	0.024957058497
0	4572	45.864987710851	0.065197149366
0	4577	45.930184860217	0.026693867583
0	4583	45.9568787278	0.147478345031
0	4590	46.104357072831	0.043621015821
0	4596	46.147978088652	0.159645195022
0	4603	46.307623283674	0.091531601692
0	4608	46.399154885366	0.107739547424
0	4614	46.50689443279	0.049461983824
0	4619	46.556356416614	0.055119280858
0	4624	46.611475697472	0.059250597216
0	4629	46.670726294688	0.072367947741
0	4637	46.743094242429	0.042198737301
0	4642	46.78529297973	0.091127428828
0	4647	46.876420408558	0.000964099458
0	4649	46.877384508016	0.015017115452
0	4657	46.892401623468	0.034460082582
0	4662	46.92686170605	0.071070105486
0	4667	46.997931811536	0.003822412377
0	4669	47.001754223913	0.000662400934
0	4671	47.002416624847	0.139560715676
0	4682	47.141977340523	0.048492109888
0	4689	47.190469450411	0.020861637969
0	4694	47.21133108838	0.06835879169
0	4699	47.27968988007	0.171529164486
0	4705	47.451219044556	0.041838316251
0	4710	47.493057360807	0.035822571385
0	4716	47.528879932192	0.126652180055
0	4721	47.655532112247	0.003135910312
0	4723	47.658668022559	0.125504502172
0	4731	47.784172524731	0.08803101549
0	4736	47.872203540221	0.02991671927
0	4742	47.902120259491	0.020976228853
0	4747	47.923096488344	0.0290766968
0	4752	47.952173185144	0.024023295985
0	4757	47.976196481129	0.01827336956
0	4762	47.994469850689	0.15657687187
0	4770	48.151046722559	0.05161856221
0	4775	48.202665284769	0.008800997421
0	4780	48.21146628219	0.131604165413
0	4788	48.343070447603	0.045775295975
0	4793	48.388845743578	0.012525901398
0	4798	48.401371644976	0.031316352286
0	4803	48.432687997262	0.126992703224
0	4809	48.559680700486	0.005619854859
0	4811	48.565300555345	0.046361398803
0	4819	48.611661954148	0.068485231445
0	4824	48.680147185593	0.075586458283
0	4829	48.755733643876	0.000184100239
0	4831	48.755917744115	0.013877812681
0	4836	48.769795556796	0.030915021657
0	4844	48.800710578453	0.029775142785
0	4849	48.830485721238	0.068992605034
0	4856	48.899478326272	0.062050209661
0	4862	48.961528535933	0.207012003869
0	4868	49.168540539802	0.146734008285
0	4874	49.315274548087	0.041667690189
0	4879	49.356942238276	0.07832895419
0	4885	49.435271192466	0.117088693105
0	4890	49.552359885571	0.083350842199
0	4895	49.63571072777	0.171766133297
0	4901	49.807476861067	0.07931014317
0	4906	49.886787004237	0.134510525954
0	4913	50.021297530191	0.010894998992
0	4919	50.032192529183	0.02073010233
0	4924	50.052922631513	0.067110354939
0	4929	50.120032986452	0.050209891235
0	4934	50.170242877687	0.062153921529
0	4939	50.232396799216	0.089686460504
0	4944	50.32208325972	0.003069263204
0	4946	50.325152522924	0.046551221034
0	4955	50.371703743958	0.100127191793
0	4960	50.471830935751	0.00854316437
0	4966	50.480374100121	0.071820927539
0	4971	50.55219502766	0.099615887926
0	4977	50.651810915586	0.000450792912
0	4979	50.652261708498	0.185241579161
0	4987	50.837503287659	0.13487874741
0	4994	50.972382035069	0.040517011673
0	5000	51.012899046742	0.028866488104
0	5005	51.041765534846	0.073290594641
0	5010	51.115056129487	0.088955014732
0	5016	51.204011144219	0.016043148583
0	5021	51.220054292802	0.024543227535
0	5026	51.244597520337	0.035137547868
0	5032	51.279735068205	0.001202461142
0	5034	51.280937529347	0.021419601186
0	5042	51.302357130533	0.003829231086
0	5044	51.306186361619	0.034219825275
0	5053	51.340406186894	0.116411305792
0	5059	51.456817492686	0.002763327888
0	5061	51.459580820574	0.074346323134
0	5070	51.533927143708	0.047607767456
0	5075	51.581534911164	0.143604503497
0	5080	51.725139414661	0.107083697101
0	5086	51.832223111762	0.116703535589
0	5093	51.948926647351	0.023469286225
0	5098	51.972395933576	0.017652767714
0	5103	51.99004870129	0.092599304198
0	5108	52.082648005488	0.017336891546
0	5113	52.099984897034	0.039732178273
0	5118	52.139717075307	0.018883417407
0	5123	52.158600492714	0.039854569205
0	5128	52.198455061919	0.010848319101
0	5133	52.20930338102	0.011070566469
0	5138	52.220373947489	0.034479434223
0	5144	52.254853381712	0.06778798846
0	5149	52.322641370172	0.01646726299
0	5154	52.339108633162	0.002260502396
0	5156	52.341369135558	0.057492540811
0	5165	52.398861676369	0.093666262744
0	5170	52.492527939113	0.136990610216
0	5177	52.629518549329	0.026503791423
0	5182	52.656022340752	0.044098520937
0	5187	52.700120861689	0.015493789141
0	5192	52.71561465083	0.044652026686
0	5198	52.760266677516	0.027986760788
0	5203	52.788253438304	0.00180661213
0	5205	52.790060050434	0.006105987599
0	5207	52.796166038033	0.307747793347
0	5222	53.10391383138	0.076644443507
0	5227	53.180558274887	0.077974006804
0	5233	53.258532281691	0.136067641429
0	5239	53.39459992312	0.012690982028
0	5244	53.407290905148	0.057191071544
0	5249	53.464481976692	0.011151374625
0	5254	53.475633351317	0.011307902123
0	5259	53.48694125344	0.062441175717
0	5264	53.549382429157	0.014292893474
0	5269	53.563675322631	0.004780238154
0	5271	53.568455560785	0.001232855263
0	5273	53.569688416048	0.009428499338
0	5278	53.579116915386	0.008264760337
0	5283	53.587381675723	0.010525529285
0	5291	53.597907205008	0.003075842385
0	5293	53.600983047393	0.009868011247
0	5298	53.61085105864	0.063810697444
0	5311	53.674661756084	0.045747985792
0	5316	53.720409741876	0.041521345242
0	5321	53.761931087118	0.017923942611
0	5326	53.779855029729	0.048764307158
0	5331	53.828619336887	0.029597823242
0	5336	53.858217160129	0.065882734557
0	5341	53.924099894686	0.002015870078
0	5343	53.926115764764	0.079422281999
0	5351	54.005538046763	0.036491252436
0	5356	54.042029299199	0.059856071358
0	5361	54.101885370557	0.016290213224
0	5366	54.118175583781	0.001761649969
0	5368	54.11993723375	0.063465664899
0	5376	54.183402898649	0.008533943344
0	5381	54.191936841993	0.10532881372
0	5388	54.297265655713	0.051719292349
0	5393	54.348984948062	0.02212758743
0	5398	54.371112535492	0.002698201525
0	5400	54.373810737017	0.091183014701
0	5409	54.464993751718	0.042518263166
0	5414	54.507512014884	0.02217990751
0	5419	54.529691922394	0.072647633343
0	5424	54.602339555737	0.039633482829
0	5430	54.641973038566	0.012939913071
0	5435	54.654912951637	0.023417316004
0	5441	54.678330267641	0.012932505948
0	5446	54.691262773589	0.003471863859
0	5448	54.694734637448	0.076070099531
0	5457	54.770804736979	0.050886994123
0	5464	54.821691731102	0.006240373661
0	5466	54.827932104763	0.036354425251
0	5474	54.864286530014	0.124273577607
0	5479	54.988560107621	0.066595617883
0	5485	55.055155725504	0.01453607862
0	5490	55.069691804124	0.017618798242
0	5495	55.087310602366	0.10334896857
0	5500	55.190659570936	0.090578536924
0	5505	55.28123810786	0.103302628949
0	5510	55.384540736809	0.04943810074
0	5515	55.433978837549	0.06938866137
0	5521	55.503367498919	0.014149372347
0	5526	55.517516871266	0.061981835124
0	5531	55.57949870639	0.012454139432
0	5536	55.591952845822	0.023865856981
0	5541	55.615818702803	0.056763741621
0	5546	55.672582444424	0.042545275151
0	5552	55.715127719575	0.055407175467
0	5557	55.770534895042	0.019604247569
0	5562	55.790139142611	0.023065858385
0	5567	55.813205000996	0.00349661253
0	5569	55.816701613526	0.084215507891
0	5578	55.900917121417	0.07867365058
0	5583	55.979590771997	0.113622138351
0	5591	56.093212910348	0.009900856223
0	5596	56.103113766571	0.007962092048
0	5598	56.111075858619	0.302137104515
0	5608	56.413212963134	0.040811295109
0	5613	56.454024258243	0.05244056288
0	5618	56.506464821123	0.025934350984
0	5624	56.532399172107	0.064156342186
0	5630	56.596555514293	0.016194144873
0	5635	56.612749659166	0.00019585376
0	5637	56.612945512926	0.026619583189
0	5645	56.639565096115	0.000671788753
0	5647	56.640236884868	0.005009061692
0	5649	56.64524594656	0.004434203802
0	5654	56.649680150362	0.028662421686
0	5665	56.678342572048	0.107077835451
0	5670	56.785420407499	0.012133055816
0	5675	56.797553463315	0.003127356835
0	5677	56.80068082015	0.008511410853
0	5682	56.809192231003	0.037405802379
0	5690	56.846598033382	0.029305053143
0	5695	56.875903086525	0.004008426353
0	5697	56.879911512878	0.030783177393
0	5705	56.910694690271	0.007519653634
0	5707	56.918214343905	0.02384537963
0	5715	56.942059723535	0.01102739707
0	5720	56.953087120605	0.010192723278
0	5725	56.963279843883	0.080094431551
0	5730	57.043374275434	0.02550798125
0	5735	57.068882256684	0.055361620151
0	5740	57.124243876835	0.025552266406
0	5745	57.149796143241	0.026611769942
0	5750	57.176407913183	0.036434076311
0	5755	57.212841989494	0.010547711126
0	5761	57.22338970062	0.046584626561
0	5767	57.269974327181	0.020767711834
0	5772	57.290742039015	0.005786443945
0	5774	57.29652848296	0.017744395554
0	5782	57.314272878514	0.031874797194
0	5787	57.346147675708	0.09186425091
0	5792	57.438011926618	0.034390694966
0	5797	57.472402621584	0.132427415002
0	5802	57.604830036586	0.074148085268
0	5807	57.678978121854	0.009374393486
0	5812	57.68835251534	0.070934989087
0	5819	57.759287504427	0.110240063923
0	5825	57.86952756835	0.04937531282
0	5830	57.91890288117	0.031294194468
0	5836	57.950197075638	0.007764840272
0	5838	57.95796191591	0.078778071878
0	5847	58.036739987788	0.002961219545
0	5849	58.039701207333	0.05000848979
0	5857	58.089709697123	0.018070456791
0	5862	58.107780153914	0.053353147819
0	5868	58.161133301733	0.001595451482
0	5870	58.162728753215	0.026457870799
0	5878	58.189186624014	0.004567761604
0	5880	58.193754385618	0.059173105587
0	5888	58.252927491205	0.023297919452
0	5893	58.276225410657	0.289976256259
0	5904	58.566201666916	0.103207556929
0	5909	58.669409223845	0.079895205195
0	5917	58.74930442904	0.042348175458
0	5922	58.791652604498	0.024304056704
0	5927	58.815956661202	0.039599184885
0	5932	58.855555846087	0.01986605463
0	5937	58.875421900717	0.051173548032
0	5942	58.926595448749	0.023325594953
0	5947	58.949921043702	0.105047224783
0	5952	59.054968268485	0.040593662298
0	5957	59.095561930783	0.120922828993
0	5964	59.216484759776	0.012574614433
0	5969	59.229059374209	0.019707836456
0	5974	59.248767210665	0.05252460513
0	5979	59.301291815795	0.019027338504
0	5984	59.320319154299	0.072441930067
0	5990	59.392761084366	0.025634532861
0	5996	59.418395617227	0.067950472527
0	6001	59.486346089754	0.058843108682
0	6007	59.545189198436	0.025861310466
0	6013	59.571050508902	0.147452938928
0	6018	59.71850344783	0.012151323098
0	6024	59.730654770928	0.009560935212
0	6029	59.74021570614	0.063423678042
0	6034	59.803639384182	0.012695440506
0	6039	59.816334824688	0.01766440158
0	6044	59.833999226268	0.005253459697
0	6046	59.839252685965	0.030363069921
0	6054	59.869615755886	0.086651336229
0	6059	59.956267092115	0.031729224449
0	6064	59.987996316564	0.036041932631
0	6069	60.024038249195	0.047618408398
0	6074	60.071656657593	0.040793882808
0	6079	60.112450540401	0.083890639392
0	6085	60.196341179793	0.007597319968
0	6087	60.203938499761	0.11183693097
0	6095	60.315775430731	0.060002077003
0	6102	60.375777507734	0.069928157561
0	6108	60.445705665295	0.030631699064
0	6113	60.476337364359	0.015692430731
0	6118	60.49202979509	0.024210141946
0	6124	60.516239937036	0.002243119184
0	6126	60.51848305622	0.148878254689
0	6134	60.667361310909	0.046471531382
0	6141	60.713832842291	0.044923504037
0	6147	60.758756346328	0.006390031637
0	6149	60.765146377965	0.058038628319
0	6158	60.823185006284	0.079700108808
0	6163	60.902885115092	0.0182333683
0	6168	60.921118483392	0.082399969914
0	6173	61.003518453306	0.028948759907
0	6178	61.032467213213	0.003367769171
0	6180	61.035834982384	0.019765914588
0	6188	61.055600896972	0.000647164557
0	6190	61.056248061529	0.006578444205
0	6192	61.062826505734	0.046958822218
0	6203	61.109785327952	0.00852905357
0	6208	61.118314381522	0.052588266816
0	6213	61.170902648338	0.018291719685
0	6218	61.189194368023	0.055198807628
0	6223	61.244393175651	0.001816710866
0	6225	61.246209886517	0.002946199444
0	6227	61.249156085961	0.054257134284
0	6238	61.303413220245	0.016556307347
0	6243	61.319969527592	0.074860651063
0	6250	61.394830178655	0.07092970531
0	6256	61.465759883965	0.035617250585
0	6261	61.50137713455	0.003491128773
0	6263	61.504868263323	0.036169760293
0	6271	61.541038023616	0.086374979382
0	6276	61.627413002998	0.236426625455
0	6282	61.863839628453	0.10990706886
0	6287	61.973746697313	0.027475631011
0	6292	62.001222328324	0.086537332555
0	6299	62.087759660879	0.018740657001
0	6304	62.10650031788	0.02680544155
0	6309	62.13330575943	0.108008296705
0	6314	62.241314056135	0.011526673598
0	6319	62.252840729733	0.023141589296
0	6324	62.275982319029	0.019967428592
0	6329	62.295949747621	0.014895281247
0	6334	62.310845028868	0.092243874092
0	6340	62.40308890296	0.041297278373
0	6346	62.444386181333	0.139505397907
0	6353	62.58389157924	0.046320132232
0	6359	62.630211711472	0.001217842986
0	6361	62.631429554458	0.030407304581
0	6370	62.661836859039	0.035398443795
0	6375	62.697235302834	0.033592400165
0	6380	62.730827702999	0.123827093522
0	6386	62.854654796521	0.017602656772
0	6391	62.872257453293	0.065548719121
0	6396	62.937806172414	0.04948810785
0	6401	62.987294280264	0.219609541478
0	6409	63.206903821742	0.031732067457
0	6414	63.238635889199	0.01415378747
0	6419	63.252789676669	0.196273513816
0	6429	63.449063190485	0.035942378172
0	6434	63.485005568657	0.075169351924
0	6440	63.560174920581	0.147234143122
0	6447	63.707409063703	0.117113321994
0	6453	63.824522385697	0.047898105036
0	6458	63.872420490733	0.00863447313
0	6463	63.881054963863	0.032077691802
0	6468	63.913132655665	0.106922221806
0	6473	64.020054877471	0.024775964689
0	6478	64.04483084216	0.008595158214
0	6483	64.053426000374	0.013741050228
0	6488	64.067167050602	0.006459606306
0	6491	64.073626656908	0.006965858411
0	6496	64.080592515319	0.106213319298
0	6505	64.186805834617	0.013759773599
0	6510	64.200565608216	0.009690017345
0	6515	64.210255625561	0.052755581046
0	6521	64.263011206607	0.147577462436
0	6527	64.410588669043	0.056211463975
0	6533	64.466800133018	0.050838901134
0	6540	64.517639034152	0.034043727692
0	6545	64.551682761844	0.302983308822
0	6550	64.854666070666	0.025432009481
0	6556	64.880098080147	0.005731059335
0	6558	64.885829139482	0.015208951915
0	6566	64.901038091397	0.058283862958
0	6571	64.959321954355	0.015509499577
0	6576	64.974831453932	0.039277502424
0	6581	65.014108956356	0.054561136474
0	6588	65.06867009283	0.005426395919
0	6590	65.074096488749	0.000768555567
0	6592	65.074865044316	0.041665835274
0	6603	65.11653087959	0.053155547682
0	6608	65.169686427272	0.022295609384
0	6613	65.191982036656	0.076826096082
0	6619	65.268808132738	0.076363057964
0	6625	65.345171190702	0.096211593865
0	6631	65.441382784567	0.014453650502
0	6636	65.455836435069	0.000608701933
0	6638	65.456445137002	0.025277782544
0	6646	65.481722919546	0.006099752832
0	6648	65.487822672378	0.110579871109
0	6660	65.598402543487	0.006831700237
0	6662	65.605234243724	0.033528378599
0	6670	65.638762622323	0.032898933439
0	6675	65.671661555762	0.216658453812
0	6683	65.888320009574	0.122276195517
0	6688	66.010596205091	0.044700985888
0	6693	66.055297190979	0.07534620553
0	6698	66.130643396509	0.08089948551
0	6705	66.211542882019	0.049468408568
0	6710	66.261011290587	0.028800485837
0	6715	66.289811776424	0.011451261261
0	6720	66.301263037685	0.284850084582
0	6727	66.586113122267	0.143637269458
0	6733	66.729750391725	0.064078266145
0	6738	66.79382865787	0.088246146549
0	6743	66.882074804419	0.0262784416
0	6748	66.908353246019	0.09535346696
0	6753	67.003706712979	0.097093801116
0	6759	67.100800514095	0.038086243678
0	6764	67.138886757773	0.032772357394
0	6769	67.171659115167	0.084908921606
0	6775	67.256568036773	0.155008913635
0	6781	67.411576950408	4.8121548e-05
0	6783	67.411625071956	0.036358239965
0	6791	67.447983311921	0.015313066399
0	6797	67.46329637832	0.013116908583
0	6803	67.476413286903	0.014934934822
0	6808	67.491348221725	0.028475493918
0	6813	67.519823715643	0.086276121735
0	6819	67.606099837378	0.012652089606
0	6824	67.618751926984	0.01631197629
0	6830	67.635063903274	0.03347465799
0	6835	67.668538561264	0.044488446004
0	6840	67.713027007268	0.007776484601
0	6845	67.720803491869	0.039002171755
0	6850	67.759805663624	0.004312715403
0	6852	67.764118379027	0.04473198616
0	6861	67.808850365187	0.005122212224
0	6863	67.813972577411	0.053156627683
0	6871	67.867129205094	0.021659293346
0	6877	67.88878849844	0.074345117317
0	6883	67.963133615757	0.128926593712
0	6889	68.092060209469	0.06936769217
0	6894	68.161427901639	0.080039804098
0	6899	68.241467705737	0.004033401256
0	6901	68.245501106993	0.007434052934
0	6906	68.252935159927	0.014177452924
0	6914	68.267112612851	0.060802024765
0	6920	68.327914637616	0.031460823167
0	6926	68.359375460783	0.041895502193
0	6931	68.401270962976	0.009083445537
0	6936	68.410354408513	0.110484175709
0	6942	68.520838584222	0.217836546687
0	6947	68.738675130909	0.057452960958
0	6952	68.796128091867	0.007400879702
0	6957	68.803528971569	0.035906403752
0	6963	68.839435375321	0.023797295482
0	6968	68.863232670803	0.014717075351
0	6973	68.877949746154	0.036359936803
0	6979	68.914309682957	0.010511370694
0	6984	68.924821053651	0.040251340692
0	6989	68.965072394343	0.045256202776
0	6994	69.010328597119	0.025340025719
0	6999	69.035668622838	0.127952869832
0	7004	69.16362149267	0.025519515613
0	7009	69.189141008283	0.036385226642
0	7014	69.225526234925	0.021710805217
0	7019	69.247237040142	0.034724065037
0	7024	69.281961105179	0.011565199719
0	7029	69.293526304898	0.106154791859
0	7034	69.399681096757	0.010796467808
0	7039	69.410477564565	0.077565270683
0	7045	69.488042835248	0.050616030003
0	7052	69.538658865251	0.004813448748
0	7055	69.543472313999	0.014575491548
0	7063	69.558047805547	0.054519162777
0	7068	69.612566968324	0.044566054697
0	7073	69.657133023021	0.182644669389
0	7079	69.83977769241	0.04899445216
0	7084	69.88877214457	0.147071253487
0	7091	70.035843398057	0.042565415906
0	7096	70.078408813963	0.009359945843
0	7101	70.087768759806	0.004006891622
0	7103	70.091775651428	0.006436826085
0	7108	70.098212477513	0.024066634136
0	7116	70.122279111649	0.074468663593
0	7121	70.196747775242	0.020152598769
0	7126	70.216900374011	0.064802379782
0	7131	70.281702753793	0.015730018234
0	7136	70.297432772027	0.007097664357
0	7138	70.304530436384	0.054858274538
0	7146	70.359388710922	0.026167827974
0	7153	70.385556538896	0.024924176064
0	7158	70.41048071496	0.065585697362
0	7163	70.476066412322	0.008171830277
0	7168	70.484238242599	0.02700394338
0	7173	70.511242185979	0.040341575757
0	7178	70.551583761736	0.006234657421
0	7181	70.557818419157	0.124491701506
0	7190	70.682310120663	0.11039611362
0	7196	70.792706234283	0.173353654393
0	7202	70.966059888676	0.005561556374
0	7204	70.97162144505	0.026780342332
0	7213	70.998401787382	0.062981618031
0	7219	71.061383405413	0.079831247878
0	7224	71.141214653291	0.033631482974
0	7229	71.174846136265	0.00370313221
0	7231	71.178549268475	0.114228404728
0	7242	71.292777673203	0.086750181304
0	7248	71.379527854507	0.035446841889
0	7253	71.414974696396	0.044991104781
0	7258	71.459965801177	0.083995251761
0	7264	71.543961052938	0.117089490103
0	7270	71.661050543041	0.04858469505
0	7275	71.709635238091	0.050337823127
0	7280	71.759973061218	0.201073275748
0	7288	71.961046336966	0.099510205463
0	7297	72.060556542429	0.002246844646
0	7300	72.062803387075	0.019602800821
0	7308	72.082406187896	0.073396803114
0	7313	72.15580299101	0.008165909573
0	7318	72.163968900583	0.219467437306
0	7326	72.383436337889	0.17488778522
0	7333	72.558324123109	0.093763697771
0	7340	72.65208782088	0.046252893436
0	7345	72.698340714316	0.03217708858
0	7350	72.730517802896	0.027805794408
0	7355	72.758323597304	0.208079280766
0	7360	72.96640287807	0.226356822649
0	7367	73.192759700719	0.015373533443
0	7372	73.208133234162	0.024183340239
0	7377	73.232316574401	0.039342045082
0	7382	73.271658619483	0.039775961512
0	7387	73.311434580995	0.057891047409
0	7392	73.369325628404	0.052078493561
0	7397	73.421404121965	0.082871507454
0	7402	73.504275629419	0.038022532559
0	7407	73.542298161978	0.003576051492
0	7409	73.54587421347	0.018770308816
0	7417	73.564644522286	0.092305271893
0	7422	73.656949794179	0.037086574964
0	7428	73.694036369143	0.099443974466
0	7434	73.793480343609	0.007898324624
0	7436	73.801378668233	0.001756035682
0	7441	73.803134703915	0.046867260177
0	7449	73.850001964092	0.12248140852
0	7455	73.972483372612	0.048777989028
0	7460	74.02126136164	0.009732895551
0	7465	74.030994257191	0.00876802462
0	7470	74.039762281811	0.074717157246
0	7476	74.114479439057	0.066692384719
0	7483	74.181171823776	0.10978148655
0	7491	74.290953310326	0.000654573365
0	7493	74.291607883691	0.020474444451
0	7501	74.312082328142	0.027684747772
0	7506	74.339767075914	0.12422829517
0	7512	74.463995371084	0.018643030647
0	7517	74.482638401731	0.005634935619
0	7519	74.48827333735	0.053673062491
0	7528	74.541946399841	0.082567952036
0	7534	74.624514351877	0.026566607815
0	7539	74.651080959692	0.057577330205
0	7544	74.708658289897	0.105840146314
0	7549	74.814498436211	0.120411174027
0	7555	74.934909610238	0.012352827051
0	7561	74.947262437289	0.030818383207
0	7566	74.978080820496	0.037451373433
0	7571	75.015532193929	0.132508444842
0	7577	75.148040638771	0.027033648222
0	7582	75.175074286993	0.070199567143
0	7587	75.245273854136	0.055635472654
0	7592	75.30090932679	0.067068409918
0	7597	75.367977736708	0.041188813398
0	7602	75.409166550106	0.007980077454
0	7607	75.41714662756	0.086316661001
0	7612	75.503463288561	0.122679234413
0	7619	75.626142522974	0.079224021844
0	7626	75.705366544818	0.023674873601
0	7631	75.729041418419	0.107790741267
0	7638	75.836832159686	0.048584605902
0	7643	75.885416765588	0.029228724609
0	7648	75.914645490197	0.088925538864
0	7653	76.003571029061	0.041537767465
0	7658	76.045108796526	0.119272749536
0	7664	76.164381546062	0.030633523043
0	7670	76.195015069105	0.075121239934
0	7677	76.270136309039	0.06108147468
0	7683	76.331217783719	0.00715715605
0	7686	76.338374939769	0.044737305086
0	7694	76.383112244855	0.059713720426
0	7699	76.442825965281	0.001929968121
0	7701	76.444755933402	0.052266188152
0	7709	76.497022121554	0.036875640079
0	7714	76.533897761633	0.011095526133
0	7720	76.544993287766	0.049502246759
0	7725	76.594495534525	0.009509493575
0	7730	76.6040050281	0.070062767685
0	7735	76.674067795785	0.072741374344
0	7742	76.746809170129	0.013606969928
0	7747	76.760416140057	0.00979823945
0	7752	76.770214379507	0.026679866023
0	7757	76.79689424553	0.006395667211
0	7759	76.803289912741	0.00326885736
0	7764	76.806558770101	0.070957900634
0	7772	76.877516670735	0.127200592612
0	7777	77.004717263347	0.120932995505
0	7783	77.125650258852	0.053786824174
0	7788	77.179437083026	0.038549600659
0	7793	77.217986683685	0.106509748618
0	7799	77.324496432303	0.054483036882
0	7804	77.378979469185	0.103146985129
0	7810	77.482126454314	0.135029998091
0	7818	77.617156452405	0.019521183839
0	7823	77.636677636244	0.10233881346
0	7830	77.739016449704	0.043200338763
0	7835	77.782216788467	0.053689272649
0	7841	77.835906061116	0.008859189661
0	7846	77.844765250777	0.046745925285
0	7851	77.891511176062	0.052947711759
0	7856	77.944458887821	0.037597836339
0	7861	77.98205672416	0.003689779447
0	7863	77.985746503607	0.03218572037
0	7871	78.017932223977	0.098451896493
0	7876	78.11638412047	0.001163232264
0	7878	78.117547352734	0.028108668563
0	7886	78.145656021297	0.016699022647
0	7891	78.162355043944	0.052250714783
0	7896	78.214605758727	0.029406719082
0	7901	78.244012477809	0.000364966522
0	7903	78.244377444331	0.036067722368
0	7911	78.280445166699	0.063361052811
0	7916	78.34380621951	0.019869039503
0	7921	78.363675259013	0.04475222968
0	7927	78.408427488693	0.019954580708
0	7932	78.428382069401	0.339279479003
0	7945	78.767661548404	0.217534837054
0	7950	78.985196385458	0.083471109409
0	7955	79.068667494867	0.02803761591
0	7960	79.096705110777	0.049192996323
0	7967	79.1458981071	0.00703814929
0	7969	79.15293625639	0.073660321238
0	7978	79.226596577628	0.004456280202
0	7980	79.23105285783	0.069628926132
0	7988	79.300681783962	0.01439790616
0	7993	79.315079690122	0.036672989691
0	7999	79.351752679813	0.03061927199
0	8004	79.382371951803	0.006498382103
0	8006	79.388870333906	0.005198927808
0	8011	79.394069261714	0.007436568348
0	8017	79.401505830062	0.044512345003
0	8026	79.446018175065	0.063951224333
0	8032	79.509969399398	0.126935764137
0	8037	79.636905163535	0.283651682377
0	8047	79.920556845912	0.037754479762
0	8053	79.958311325674	0.112439681956
0	8058	80.07075100763	0.035357810281
0	8063	80.106108817911	0.001831364193
0	8065	80.107940182104	0.074174131462
0	8073	80.182114313566	0.029901662607
0	8079	80.212015976173	0.057569916347
0	8084	80.26958589252	0.03264522429
0	8089	80.30223111681	0.019574917664
0	8094	80.321806034474	0.074191472553
0	8099	80.395997507027	0.011479969473
0	8104	80.4074774765	0.005935907613
0	8106	80.413413384113	0.023653650456
0	8115	80.437067034569	0.025664036443
0	8120	80.462731071012	0.003225668986
0	8122	80.465956739998	0.030128502005
0	8130	80.496085242003	0.001654473186
0	8132	80.497739715189	0.011002862449
0	8137	80.508742577638	0.209065694603
0	8146	80.717808272241	0.019889455575
0	8152	80.737697727816	0.046480651382
0	8157	80.784178379198	0.030244447705
0	8162	80.814422826903	0.019789761463
0	8167	80.834212588366	0.121854429062
0	8173	80.956067017428	0.140705338037
0	8179	81.096772355465	0.131012155351
0	8186	81.227784510816	0.012122718153
0	8191	81.239907228969	0.006975731869
0	8193	81.246882960838	0.00920111189
0	8199	81.256084072728	0.084175386414
0	8207	81.340259459142	0.052653875409
0	8212	81.392913334551	0.059115380462
0	8218	81.452028715013	0.006146969414
0	8220	81.458175684427	0.054727364836
0	8228	81.512903049263	0.006681527453
0	8230	81.519584576716	0.075959066434
0	8239	81.59554364315	0.08034001887
0	8244	81.67588366202	0.042577037295
0	8249	81.718460699315	0.02104961675
0	8254	81.739510316065	0.085058316514
0	8260	81.824568632579	0.0304538017
0	8265	81.855022434279	0.058734975507
0	8270	81.913757409786	0.065228835592
0	8275	81.978986245378	0.049751085055
0	8280	82.028737330433	0.00083089313
0	8282	82.029568223563	0.058575105017
0	8290	82.08814332858	0.075970794382
0	8296	82.164114122962	0.122999029871
0	8303	82.287113152833	0.075840398658
0	8309	82.362953551491	0.12238408982
0	8315	82.485337641311	0.044548679055
0	8320	82.529886320366	0.001660445338
0	8322	82.531546765704	0.024099135452
0	8330	82.555645901156	0.040809896292
0	8336	82.596455797448	0.029098031915
0	8341	82.625553829363	0.196086590125
0	8348	82.821640419488	0.098857563361
0	8355	82.920497982849	0.01684539629
0	8360	82.937343379139	0.030148674844
0	8366	82.967492053983	0.048163652679
0	8371	83.015655706662	0.034558180426
0	8377	83.050213887088	0.01521302982
0	8382	83.065426916908	0.020198647123
0	8387	83.085625564031	0.008995352822
0	8392	83.094620916853	0.027810326172
0	8397	83.122431243025	0.002099561724
0	8400	83.124530804749	0.071745161958
0	8409	83.196275966707	0.097394260808
0	8415	83.293670227515	0.09692024273
0	8421	83.390590470245	0.018942829026
0	8426	83.409533299271	0.016935557421
0	8431	83.426468856692	0.002183621908
0	8433	83.4286524786	0.009203267023
0	8438	83.437855745623	0.007336162188
0	8443	83.445191907811	0.003815855051
0	8445	83.449007762862	0.001372460037
0	8447	83.450380222899	0.015214830208
0	8455	83.465595053107	0.191864281739
0	8467	83.657459334846	0.110593974667
0	8472	83.768053309513	0.036986997852
0	8477	83.805040307365	0.160310503043
0	8484	83.965350810408	0.059224723972
0	8489	84.02457553438	0.030126494094
0	8494	84.054702028474	0.039032355492
0	8501	84.093734383966	0.018656276353
0	8506	84.112390660319	0.193697768812
0	8513	84.306088429131	0.025018049762
0	8519	84.331106478893	0.085661711492
0	8526	84.416768190385	0.019534568308
0	8531	84.436302758693	0.028873042869
0	8536	84.465175801562	0.034062681802
0	8543	84.499238483364	0.006315208988
0	8546	84.505553692352	0.085738703475
0	8554	84.591292395827	0.019838156784
0	8559	84.611130552611	0.144945776037
0	8565	84.756076328648	0.100348033401
0	8570	84.856424362049	0.034448750122
0	8575	84.890873112171	0.032394974335
0	8580	84.923268086506	0.112259805732
0	8586	85.035527892238	0.011462043805
0	8591	85.046989936043	0.128388632025
0	8598	85.175378568068	0.043010731619
0	8603	85.218389299687	0.126225138524
0	8608	85.344614438211	0.111911025454
0	8613	85.456525463665	0.018440959708
0	8619	85.474966423373	0.074151000397
0	8625	85.54911742377	0.038637284869
0	8630	85.587754708639	0.013077486081
0	8635	85.60083219472	0.076821740655
0	8642	85.677653935375	0.069915634861
0	8649	85.747569570236	0.028297159133
0	8655	85.775866729369	0.007820295905
0	8657	85.783687025274	0.059762423653
0	8665	85.843449448927	0.026906052218
0	8672	85.870355501145	0.008262987419
0	8674	85.878618488564	0.042681043112
0	8682	85.921299531676	0.050223552689
0	8688	85.971523084365	0.094117888082
0	8694	86.065640972447	0.01967898497
0	8699	86.085319957417	0.04210466083
0	8705	86.127424618247	0.038738064986
0	8710	86.166162683233	0.05292754656
0	8715	86.219090229793	0.23858096291
0	8723	86.457671192703	0.096504639206
0	8729	86.554175831909	0.064911591278
0	8734	86.619087423187	0.011217040601
0	8739	86.630304463788	0.071886084032
0	8744	86.70219054782	0.031642790014
0	8749	86.733833337834	0.071938810273
0	8755	86.805772148107	0.002367424618
0	8757	86.808139572725	0.034473544463
0	8765	86.842613117188	0.03026946611
0	8770	86.872882583298	0.006236460691
0	8772	86.879119043989	0.045967392103
0	8781	86.925086436092	0.03459299779
0	8786	86.959679433882	0.042912767154
0	8791	87.002592201036	0.009765258153
0	8796	87.012357459189	0.037255057434
0	8801	87.049612516623	0.025981073252
0	8806	87.075593589875	0.00393335175
0	8808	87.079526941625	0.006659898437
0	8813	87.086186840062	0.01116663681
0	8818	87.097353476872	0.00306123905
0	8820	87.100414715922	0.000677123142
0	8822	87.101091839064	0.133560653482
0	8836	87.234652492546	0.202712715327
0	8844	87.437365207873	0.088949872622
0	8850	87.526315080495	0.081869745232
0	8856	87.608184825727	0.02037109537
0	8861	87.628555921097	0.080222604989
0	8866	87.708778526086	0.017092361828
0	8871	87.725870887914	0.035995369539
0	8876	87.761866257453	0.07000417746
0	8882	87.831870434913	0.001514827759
0	8884	87.833385262672	0.054187369532
0	8893	87.887572632204	0.085173476983
0	8898	87.972746109187	0.01568676119
0	8903	87.988432870377	0.010881400426
0	8908	87.999314270803	0.129497003539
0	8914	88.128811274342	0.039510591002
0	8920	88.168321865344	0.085231824764
0	8926	88.253553690108	0.035496126122
0	8931	88.28904981623	0.07612396709
0	8936	88.36517378332	0.054968364754
0	8941	88.420142148074	0.015950287622
0	8946	88.436092435696	0.056306582127
0	8952	88.492399017823	0.014025411596
0	8957	88.506424429419	0.013032433662
0	8962	88.519456863081	0.024602117694
0	8967	88.544058980775	0.070946765459
0	8973	88.615005746234	0.063079830974
0	8978	88.678085577208	0.00089186803
0	8980	88.678977445238	0.082284388774
0	8989	88.761261834012	0.109756431021
0	8996	88.871018265033	0.030108929901
0	9001	88.901127194934	0.008774158593
0	9006	88.909901353527	0.05650979826
0	9011	88.966411151787	0.043507091978
0	9017	89.009918243765	0.059098965725
0	9022	89.06901720949	0.032465666333
0	9027	89.101482875823	0.062721373563
0	9033	89.164204249386	0.037494914238
0	9039	89.201699163624	0.010494384367
0	9046	89.212193547991	0.022220868737
0	9052	89.234414416728	0.014664475139
0	9057	89.249078891867	0.0095326769
0	9062	89.258611568767	0.003305830003
0	9064	89.26191739877	0.063155814293
0	9072	89.325073213063	0.016666668575
0	9078	89.341739881638	0.08596239891
0	9083	89.427702280548	0.015993586254
0	9088	89.443695866802	0.117441724578
0	9095	89.56113759138	0.010979051568
0	9100	89.572116642948	0.047735035718
0	9106	89.619851678666	0.005732495513
0	9108	89.625584174179	0.044362361646
0	9117	89.669946535825	0.064178291288
0	9122	89.734124827113	0.004933395065
0	9124	89.739058222178	0.057276595098
0	9132	89.796334817276	0.121377612528
0	9137	89.917712429804	0.020874062588
0	9143	89.938586492392	0.093371340742
0	9148	90.031957833134	0.048857384987
0	9155	90.080815218121	0.022639157232
0	9160	90.103454375353	0.01923819965
0	9165	90.122692575003	0.031201067212
0	9170	90.153893642215	0.048184728736
0	9175	90.202078370951	0.030157606299
0	9180	90.23223597725	0.014489559071
0	9185	90.246725536321	0.042704496067
0	9191	90.289430032388	0.039588936939
0	9196	90.329018969327	0.098427110095
0	9204	90.427446079422	0.016837924577
0	9209	90.444284003999	0.012023934584
0	9214	90.456307938583	0.010498546196
0	9219	90.466806484779	0.065430995357
0	9225	90.532237480136	0.011444495898
0	9230	90.543681976034	0.04599004354
0	9235	90.589672019574	0.0188563182
0	9240	90.608528337774	0.054898520277
0	9246	90.663426858051	0.015008510826
0	9251	90.678435368877	0.06111066228
0	9256	90.739546031157	0.031604405712
0	9261	90.771150436869	0.065764390348
0	9266	90.836914827217	6.421309e-05
0	9268	90.836979040307	0.129234475772
0	9278	90.966213516079	0.009171853278
0	9283	90.975385369357	0.065057836928
0	9289	91.040443206285	0.045512265101
0	9294	91.085955471386	0.079807150353
0	9299	91.165762621739	0.021125467043
0	9304	91.186888088782	0.007461939122
0	9306	91.194350027904	0.034837856675
0	9314	91.229187884579	0.020176689998
0	9319	91.249364574577	0.120937345799
0	9324	91.370301920376	0.079062404818
0	9329	91.449364325194	0.100850684498
0	9335	91.550215009692	0.010472075781
0	9340	91.560687085473	0.068521173851
0	9345	91.629208259324	0.067604459632
0	9352	91.696812718956	0.023239827769
0	9357	91.720052546725	0.122097164561
0	9362	91.842149711286	0.10159293741
0	9367	91.943742648696	0.108985144438
0	9372	92.052727793134	0.196550130171
0	9380	92.249277923305	0.045660701518
0	9385	92.294938624823	0.028708869888
0	9390	92.323647494711	0.010744647412
0	9395	92.334392142123	0.103190077415
0	9401	92.437582219538	0.02342275637
0	9406	92.461004975908	0.233958210372
0	9413	92.69496318628	0.062437304692
0	9418	92.757400490972	0.118998475958
0	9425	92.87639896693	0.10397407537
0	9431	92.9803730423	0.039529450022
0	9436	93.019902492322	0.027857910304
0	9442	93.047760402626	0.01068242879
0	9447	93.058442831416	0.000775140409
0	9449	93.059217971825	0.000258254123
0	9451	93.059476225948	0.014971290841
0	9457	93.074447516789	0.044429697987
0	9468	93.118877214776	0.033194120364
0	9473	93.15207133514	0.082179117775
0	9479	93.234250452915	0.03983488096
0	9484	93.274085333875	0.020844624537
0	9489	93.294929958412	0.035079139481
0	9494	93.330009097893	0.050375553779
0	9499	93.380384651672	0.032841786222
0	9504	93.413226437894	0.02976560944
0	9509	93.442992047334	0.10047786889
0	9514	93.543469916224	0.062740111739
0	9520	93.606210027963	0.014110345006
0	9525	93.620320372969	0.042379267325
0	9530	93.662699640294	0.001522373226
0	9532	93.66422201352	0.023596354459
0	9540	93.687818367979	0.009932786055
0	9546	93.697751154034	0.007298685421
0	9548	93.705049839455	0.008248464392
0	9553	93.713298303847	0.029191651144
0	9562	93.742489954991	0.089467397881
0	9570	93.831957352872	0.012650604486
0	9575	93.844607957358	0.014182980462
0	9580	93.85879093782	0.066284053914
0	9586	93.925074991734	0.009511436073
0	9591	93.934586427807	0.039808919184
0	9597	93.974395346991	0.00910929733
0	9602	93.983504644321	0.015461483221
0	9607	93.998966127542	0.001709102866
0	9609	94.000675230408	0.16933468998
0	9618	94.170009920388	0.074842659507
0	9623	94.244852579895	0.001025222562
0	9625	94.245877802457	0.028064435179
0	9633	94.273942237636	0.018969791689
0	9639	94.292912029325	0.035325217653
0	9644	94.328237246978	0.046663800439
0	9649	94.374901047417	0.045433077317
0	9656	94.420334124734	0.008877364772
0	9661	94.429211489506	0.021824825565
0	9666	94.451036315071	0.011490122243
0	9671	94.462526437314	0.02916378192
0	9676	94.491690219234	0.086612271736
0	9683	94.57830249097	0.005363650468
0	9685	94.583666141438	0.021413572665
0	9693	94.605079714103	0.046204519405
0	9698	94.651284233508	0.048068482393
0	9703	94.699352715901	0.025871636605
0	9708	94.725224352506	0.016483204533
0	9713	94.741707557039	0.031572179874
0	9719	94.773279736913	0.088272806647
0	9724	94.86155254356	0.100742025734
0	9730	94.962294569294	0.020494240811
0	9735	94.982788810105	0.014465022005
0	9740	94.99725383211	0.367726846523
0	9752	95.364980678633	0.054866324478
0	9757	95.419847003111	0.029288686925
0	9763	95.449135690036	0.024689662636
0	9768	95.473825352672	0.051811344042
0	9774	95.525636696714	0.020472089373
0	9779	95.546108786087	0.093440101859
0	9784	95.639548887946	0.006790479979
0	9786	95.646339367925	0.0220406828
0	9795	95.668380050725	0.037542238944
0	9800	95.705922289669	0.061421927712
0	9805	95.767344217381	0.023203892762
0	9812	95.790548110143	0.140571670487
0	9820	95.93111978063	0.020918678203
0	9825	95.952038458833	0.001198096737
0	9827	95.95323655557	0.001247713458
0	9829	95.954484269028	0.127203002766
0	9840	96.081687271794	0.032285830815
0	9845	96.113973102609	0.015906256358
0	9850	96.129879358967	0.02779577392
0	9855	96.157675132887	0.005795754792
0	9857	96.163470887679	0.020754172092
0	9865	96.184225059771	0.071006245494
0	9872	96.255231305265	0.012169964302
0	9878	96.267401269567	0.113941545031
0	9883	96.381342814598	0.019628174902
0	9888	96.4009709895	0.00644081057
0	9890	96.40741180007	0.119160804993
0	9898	96.526572605063	0.066004116594
0	9904	96.592576721657	0.107562854262
0	9910	96.700139575919	0.099008961117
0	9916	96.799148537036	0.036457254383
0	9922	96.835605791419	0.061720686964
0	9927	96.897326478383	0.006079844412
0	9929	96.903406322795	0.011335629223
0	9937	96.914741952018	0.042120308262
0	9942	96.95686226028	0.033195594795
0	9947	96.990057855075	0.03483919052
0	9952	97.024897045595	0.026272784223
0	9957	97.051169829818	0.012100138311
0	9962	97.063269968129	0.022281347159
0	9967	97.085551315288	0.074463558106
0	9973	97.160014873394	0.07545157925
0	9978	97.235466452644	0.021361670641
0	9983	97.256828123285	0.060096571389
0	9988	97.316924694674	0.034795890067
0	9993	97.351720584741	0.005101874463
0	9995	97.356822459204	0.070375673455
0	10004	97.427198132659	0.007458029208
0	10006	97.434656161867	0.004228504684
0	10011	97.438884666551	0.026131374404
0	10019	97.465016040955	0.00151744767
0	10021	97.466533488625	0.036545602809
0	10029	97.503079091434	0.032637101019
0	10034	97.535716192453	0.015628719693
0	10040	97.551344912146	0.138067857704
0	10046	97.68941276985	0.009961607643
0	10051	97.699374377493	0.159323095011
0	10057	97.858697472504	0.007918795088
0	10062	97.866616267592	0.156657851683
0	10067	98.023274119275	0.07672116144
0	10072	98.099995280715	0.008941358727
0	10077	98.108936639442	0.10653979236
0	10083	98.215476431802	0.021366911085
0	10088	98.236843342887	0.050999952224
0	10094	98.287843295111	0.09690498953
0	10100	98.384748284641	0.046303927377
0	10105	98.431052212018	0.048308958905
0	10111	98.479361170923	0.046029274049
0	10116	98.525390444972	0.162649081334
0	10121	98.688039526306	0.013000305628
0	10126	98.701039831934	0.03343984727
0	10131	98.734479679204	0.021649688496
0	10136	98.7561293677	0.070308448895
0	10142	98.826437816595	0.020378487226
0	10147	98.846816303821	0.073914816127
0	10152	98.920731119948	0.023265526488
0	10157	98.943996646436	0.05620723712
0	10162	99.000203883556	0.076773084417
0	10168	99.076976967973	0.050303153442
0	10174	99.127280121415	0.060541956656
0	10180	99.187822078071	0.012172184602
0	10185	99.199994262673	0.147334894004
0	10191	99.347329156677	0.16379610256
0	10198	99.511125259237	0.015780417466
0	10203	99.526905676703	0.000605856043
0	10205	99.527511532746	0.065858867602
0	10214	99.593370400348	0.064616306515
0	10219	99.657986706863	0.012865360208
0	10224	99.670852067071	0.03437887048
0	10229	99.705230937551	0.024843127532
0	10234	99.730074065083	0.029857691289
0	10239	99.759931756372	0.02712529584
0	10244	99.787057052212	0.032914739781
0	10251	99.819971791993	0.03246377673
0	10256	99.852435568723	0.00530523848
0	10258	99.857740807203	0.10339613732
0	10268	99.961136944523	0.081674910952
0	10274	100.042811855475	0.014321474229
0	10279	100.057133329704	0.024988954041
0	10284	100.082122283745	0.000768745438
0	10286	100.082891029183	0.010538490623
0	10291	100.093429519806	0.082030943569
0	10300	100.175460463375	0.006286458357
0	10303	100.181746921732	0.038179471282
0	10311	100.219926393014	0.00872617768
0	10316	100.228652570694	0.100673596712
0	10323	100.329326167406	0.114100696482
0	10330	100.443426863888	0.065952865195
0	10335	100.509379729083	0.030483887942
0	10340	100.539863617025	0.085965278699
0	10346	100.625828895724	0.02298116373
0	10351	100.648810059454	0.061256050707
0	10356	100.710066110161	0.037233647455
0	10362	100.747299757616	0.003331234606
0	10364	100.750630992222	0.00171105505
0	10366	100.752342047272	0.150609432563
0	10377	100.902951479835	0.007040501813
0	10379	100.909991981648	0.01936364536
0	10387	100.929355627008	0.007393799693
0	10393	100.936749426701	0.031985540722
0	10398	100.968734967423	0.029407977869
0	10404	100.998142945292	0.052488475028
0	10409	101.05063142032	0.079466480827
0	10415	101.130097901147	0.039222504238
0	10420	101.169320405385	0.016522502879
0	10425	101.185842908264	0.18425070955
0	10433	101.370093617814	0.012091881562
0	10438	101.382185499376	0.023397300798
0	10445	101.405582800174	0.0047543622
0	10447	101.410337162374	0.005775346927
0	10452	101.416112509301	0.140933655166
0	10462	101.557046164467	0.107642026177
0	10468	101.664688190644	0.03796000388
0	10473	101.702648194524	0.063238477303
0	10479	101.765886671827	0.076604147759
0	10484	101.842490819586	0.074022467129
0	10489	101.916513286715	0.034742050334
0	10495	101.951255337049	0.038157328182
0	10501	101.989412665231	0.002843985757
0	10503	101.992256650988	0.022705576035
0	10511	102.014962227023	0.021395918892
0	10516	102.036358145915	0.025087492535
0	10521	102.06144563845	0.008010822241
0	10526	102.069456460691	0.08243703241
0	10532	102.151893493101	0.043658064231
0	10537	102.195551557332	0.001417351955
0	10539	102.196968909287	0.01191281768
0	10544	102.208881726967	0.091957411158
0	10552	102.300839138125	0.029878311177
0	10557	102.330717449302	0.020632873365
0	10562	102.351350322667	0.042066450501
0	10567	102.393416773168	0.019501239941
0	10572	102.412918013109	0.178688765498
0	10579	102.591606778607	0.143602226291
0	10585	102.735209004898	0.005575985491
0	10587	102.740784990389	0.001325124736
0	10589	102.742110115125	0.08368630869
0	10600	102.825796423815	0.062243773663
0	10605	102.888040197478	0.000465241922
0	10607	102.8885054394	0.059026087613
0	10615	102.947531527013	0.038378392003
0	10621	102.985909919016	0.063357726103
0	10627	103.049267645119	0.001903350422
0	10629	103.051170995541	0.232178869788
0	10641	103.283349865329	0.029769297793
0	10647	103.313119163122	0.071106486548
0	10653	103.38422564967	0.012587067899
0	10658	103.396812717569	0.002924033202
0	10660	103.399736750771	0.00725722401
0	10665	103.406993974781	0.025740668721
0	10673	103.432734643502	0.044563332088
0	10678	103.47729797559	0.009797772753
0	10683	103.487095748343	0.033817706199
0	10688	103.520913454542	0.059733536814
0	10694	103.580646991356	0.054407679557
0	10700	103.635054670913	0.121335874552
0	10707	103.756390545465	0.001262190637
0	10709	103.757652736102	0.058786321686
0	10718	103.816439057788	0.051297337027
0	10724	103.867736394815	0.009586111852
0	10730	103.877322506667	0.023721931801
0	10735	103.901044438468	0.026445149064
0	10741	103.927489587532	0.056013035323
0	10747	103.983502622855	0.117507764105
0	10754	104.10101038696	0.023480554842
0	10760	104.124490941802	0.031281671499
0	10766	104.155772613301	0.05347546674
0	10771	104.209248080041	0.064474440315
0	10777	104.273722520356	0.1048422947
0	10783	104.378564815056	0.002640758846
0	10785	104.381205573902	0.079153435333
0	10794	104.460359009235	0.018228959171
0	10799	104.478587968406	0.006743736074
0	10801	104.48533170448	0.003952799099
0	10806	104.489284503579	0.005933319837
0	10811	104.495217823416	0.044974134881
0	10819	104.540191958297	0.103936936758
0	10824	104.644128895055	0.009824063052
0	10829	104.653952958107	0.035106295649
0	10835	104.689059253756	0.169577325089
0	10842	104.858636578845	0.034162334261
0	10848	104.892798913106	0.028234338326
0	10853	104.921033251432	0.223694890577
0	10861	105.144728142009	0.006416369123
0	10863	105.151144511132	0.201023330884
0	10872	105.352167842016	0.058245134636
0	10877	105.410412976652	0.014239062333
0	10882	105.424652038985	0.021063863109
0	10887	105.445715902094	0.038070315839
0	10892	105.483786217933	0.095569536777
0	10898	105.57935575471	0.008239974447
0	10903	105.587595729157	0.06807240972
0	10910	105.655668138877	0.060723528607
0	10916	105.716391667484	0.001402942451
0	10918	105.717794609935	0.093544749726
0	10926	105.811339359661	0.013135928488
0	10931	105.824475288149	0.137977506062
0	10936	105.962452794211	0.006661224389
0	10938	105.9691140186	0.006475396999
0	10943	105.975589415599	0.020404033847
0	10951	105.995993449446	0.14626744922
0	10957	106.142260898666	0.040335495147
0	10963	106.182596393813	0.002008686786
0	10965	106.184605080599	0.002799092459
0	10967	106.187404173058	0.107436545939
0	10979	106.294840718997	0.035782765246
0	10984	106.330623484243	0.061337608504
0	10989	106.391961092747	0.010743447088
0	10994	106.402704539835	0.115173283748
0	10999	106.517877823583	0.047029542398
0	11005	106.564907365981	0.034855006423
0	11010	106.599762372404	0.03585897221
0	11016	106.635621344614	0.084208753937
0	11022	106.719830098551	0.005082353798
0	11024	106.724912452349	0.018131186742
0	11032	106.743043639091	0.03789546921
0	11037	106.780939108301	0.036355506427
0	11042	106.817294614728	0.011757933926
0	11047	106.829052548654	0.001986202435
0	11049	106.831038751089	0.043930464637
0	11057	106.874969215726	0.020846808242
0	11063	106.895816023968	0.130144863869
0	11069	107.025960887837	0.064499482186
0	11074	107.090460370023	0.091683313091
0	11080	107.182143683114	0.025239545057
0	11085	107.207383228171	0.046289868399
0	11090	107.25367309657	0.01870383245
0	11095	107.27237692902	0.006027863708
0	11097	107.278404792728	0.02990285101
0	11106	107.308307643738	0.054543358378
0	11111	107.362851002116	0.03875574528
0	11116	107.401606747396	0.142245542263
0	11122	107.543852289659	0.139291204919
0	11127	107.683143494578	0.001213331938
0	11129	107.684356826516	0.064721469536
0	11138	107.749078296052	0.15738343235
0	11143	107.906461728402	0.049152636749
0	11149	107.955614365151	0.055967282426
0	11154	108.011581647577	0.014899996346
0	11159	108.026481643923	0.083307318576
0	11164	108.109788962499	0.014934063264
0	11169	108.124723025763	0.036738666799
0	11174	108.161461692562	9.826754e-05
0	11176	108.161559960102	0.016140773698
0	11184	108.1777007338	0.091073750679
0	11189	108.268774484479	0.0040983942
0	11191	108.272872878679	0.060350973379
0	11200	108.333223852058	0.01634744402
0	11205	108.349571296078	0.019829861625
0	11210	108.369401157703	0.004161993905
0	11212	108.373563151608	0.061904681465
0	11220	108.435467833073	0.038568888459
0	11226	108.474036721532	0.006880099913
0	11228	108.480916821445	0.096582570981
0	11236	108.577499392426	0.053058710351
0	11241	108.630558102777	0.115882469737
0	11248	108.746440572514	0.010572919929
0	11253	108.757013492443	0.150234818518
0	11258	108.907248310961	0.025819102721
0	11263	108.933067413682	0.03703656707
0	11269	108.970103980752	0.028068619236
0	11275	108.998172599988	0.006044000229
0	11277	109.004216600217	0.007407596399
0	11282	109.011624196616	0.084052859191
0	11290	109.095677055807	0.011058103405
0	11295	109.106735159212	0.05902820378
0	11300	109.165763362992	0.001808072134
0	11302	109.167571435126	0.102166058201
0	11310	109.269737493327	0.051712121283
0	11317	109.32144961461	0.001007865201
0	11319	109.322457479811	0.007363167651
0	11324	109.329820647462	0.0512166315
0	11332	109.381037278962	0.002282824764
0	11334	109.383320103726	0.045402918616
0	11342	109.428723022342	0.00958408118
0	11347	109.438307103522	0.097358695714
0	11352	109.535665799236	0.071121226567
0	11357	109.606787025803	0.009215781395
0	11362	109.616002807198	0.023239105597
0	11367	109.639241912795	0.003335637421
0	11369	109.642577550216	0.02093955143
0	11377	109.663517101646	0.153090171025
0	11382	109.816607272671	0.05941386736
0	11387	109.876021140031	0.007198509067
0	11389	109.883219649098	0.134727939274
0	11397	110.017947588372	0.019491376804
0	11402	110.037438965176	0.022246693517
0	11407	110.059685658693	0.058638937286
0	11412	110.118324595979	0.05059975106
0	11417	110.168924347039	0.069675327727
0	11423	110.238599674766	0.092943092926
0	11428	110.331542767692	0.069729993762
0	11433	110.401272761454	0.008061311103
0	11435	110.409334072557	0.088924455987
0	11444	110.498258528544	0.026581209834
0	11450	110.524839738378	0.011629061621
0	11455	110.536468799999	0.085149839525
0	11461	110.621618639524	0.005462882343
0	11463	110.627081521867	0.043225229173
0	11472	110.67030675104	0.074065421303
0	11477	110.744372172343	0.006869390594
0	11479	110.751241562937	0.000245487923
0	11481	110.75148705086	0.026877530393
0	11492	110.778364581253	0.082018002164
0	11497	110.860382583417	0.045874541855
0	11502	110.906257125272	0.030272266472
0	11507	110.936529391744	0.040766003483
0	11512	110.977295395227	0.032539813578
0	11518	111.009835208805	0.000550956688
0	11520	111.010386165493	0.137105433878
0	11528	111.147491599371	0.009156463337
0	11533	111.156648062708	0.02742718621
0	11539	111.184075248918	0.050847890245
0	11544	111.234923139163	0.02112949277
0	11549	111.256052631933	0.046470691372
0	11554	111.302523323305	0.006491685505
0	11556	111.30901500881	0.043358589096
0	11564	111.352373597906	0.127377797133
0	11571	111.479751395039	0.092514381739
0	11578	111.572265776778	0.070814519607
0	11585	111.643080296385	0.072393699469
0	11590	111.715473995854	0.003096572533
0	11592	111.718570568387	0.015961536886
0	11600	111.734532105273	0.008071398212
0	11605	111.742603503485	0.03654719554
0	11610	111.779150699025	0.00255860985
0	11612	111.781709308875	0.045278887444
0	11620	111.826988196319	0.025519273711
0	11625	111.85250747003	0.046079349816
0	11631	111.898586819846	0.035198974044
0	11637	111.93378579389	0.011127370535
0	11642	111.944913164425	0.191165431261
0	11650	112.136078595686	0.120787148616
0	11655	112.256865744302	0.030778934102
0	11661	112.287644678404	0.002576629752
0	11663	112.290221308156	0.024254646022
0	11671	112.314475954178	0.077080324477
0	11677	112.391556278655	0.070107025617
0	11683	112.461663304272	0.026071456833
0	11688	112.487734761105	0.083824591611
0	11694	112.571559352716	0.060809208314
0	11700	112.63236856103	0.032720359081
0	11705	112.665088920111	0.134324987504
0	11711	112.799413907615	0.137932138091
0	11716	112.937346045706	0.047548475537
0	11721	112.984894521243	0.026366335757
0	11726	113.011260857	0.006481188394
0	11728	113.017742045394	0.105504378117
0	11736	113.123246423511	0.054039834457
0	11741	113.177286257968	0.005776122522
0	11743	113.18306238049	0.119036344828
0	11751	113.302098725318	0.026950820743
0	11756	113.329049546061	0.131843042225
0	11762	113.460892588286	0.127169017161
0	11767	113.588061605447	0.038707258005
0	11772	113.626768863452	0.029945282134
0	11777	113.656714145586	0.006964188952
0	11779	113.663678334538	0.021728509378
0	11787	113.685406843916	0.013269746088
0	11792	113.698676590004	0.063488928889
0	11797	113.762165518893	0.120446724811
0	11802	113.882612243704	0.070321233679
0	11807	113.952933477383	0.001988692832
0	11809	113.954922170215	0.139435042361
0	11818	114.094357212576	0.131609452806
0	11827	114.225966665382	0.034483304007
0	11832	114.260449969389	0.020145422662
0	11838	114.280595392051	0.023538401675
0	11843	114.304133793726	0.014423699948
0	11848	114.318557493674	0.003681157217
0	11850	114.322238650891	0.067590335145
0	11858	114.389828986036	0.045380888078
0	11864	114.435209874114	0.160702607147
0	11869	114.595912481261	0.116227878701
0	11875	114.712140359962	0.005860529014
0	11877	114.718000888976	0.022024584085
0	11885	114.740025473061	0.01900857596
0	11890	114.759034049021	0.023500563399
0	11895	114.78253461242	0.097527782171
0	11900	114.880062394591	0.092468091497
0	11905	114.972530486088	0.01131354073
0	11910	114.983844026818	0.017463942795
0	11915	115.001307969613	0.026802077536
0	11920	115.028110047149	0.135784823855
0	11928	115.163894871004	0.094631262561
[...]
19	31941	301.558695591625	3.3408590813217
19	32254	304.899554672947	0.10053877109115
19	32290	305.000093444038	1.5358345340871
19	32406	306.535927978125	0.99718290842902
19	32507	307.533110886554	0.50118761446257
19	32586	308.034298501017	0.59907845454286
19	32644	308.63337695556	0.38672672639221
19	32676	309.020103681952	2.9009555622067
19	33081	311.921059244159	0.02659047756219
19	33082	311.947649721721	0.25284210446655
19	33130	312.200491826188	4.8991583245161
19	33652	317.099650150704	0.010994134647763
19	33653	317.110644285352	3.7762801308924
19	34026	320.886924416244	1.4333570196157
19	34208	322.32028143586	2.6080923581752
19	34534	324.928373794035	1.3322770331174
19	34696	326.260650827152	3.6311208554401
19	35143	329.891771682592	5.4598997878041
19	35678	335.351671470396	1.7114771038751
19	35849	337.063148574271	1.3535091927959
19	35991	338.416657767067	0.60472007706949
19	36070	339.021377844136	4.766889961314
19	36597	343.78826780545	3.5796574424723
19	36970	347.367925247922	3.1128270024984
19	37289	350.48075225042	2.7188788664441
19	37631	353.199631116864	0.86682436860279
19	37698	354.066455485467	0.16749128087185
19	37711	354.233946766339	0.23969340757451
19	37758	354.473640173914	4.5432095324811
19	38274	359.016849706395	3.9597365037348
19	38711	362.97658621013	0.39257970463497
19	38759	363.369165914765	4.5838166075315
19	39296	367.952982522296	0.44600808085262
19	39343	368.398990603149	0.30103562211344
19	39385	368.700026225262	2.6728155002461
19	39692	371.372841725508	0.73079181257569
19	39773	372.103633538084	0.4919690878964
19	39827	372.59560262598	1.5886582592472
19	39978	374.184260885227	2.3267457652509
19	40239	376.511006650478	4.3213314486928
19	40765	380.832338099171	1.1739359167351
19	40910	382.006274015906	2.061544350679
19	41181	384.067818366585	0.16991117439337
19	41209	384.237729540978	1.1565464903258
19	41344	385.394276031304	0.13731854299081
19	41361	385.531594574295	1.440535467841
19	41501	386.972130042136	3.8330272374468
19	41876	390.805157279583	0.47565779945097
19	41950	391.280815079034	0.22854797338497
19	41972	391.509363052419	2.4224222194368
19	42186	393.931785271856	1.5160527130972
19	42342	395.447837984953	3.0113142769371
19	42676	398.45915226189	2.8681159809463
20	1847	18.302778219023	1.0050497773641
20	1942	19.307827996387	2.5797744719023
20	2244	21.887602468289	1.0279888480242
20	2320	22.915591316313	3.4988894405888
20	2705	26.414480756902	0.4237125158988
20	2734	26.838193272801	2.1830664414403
20	2904	29.021259714241	0.24755141360635
20	2924	29.268811127847	1.4000272256337
20	3050	30.668838353481	0.092119656653612
20	3068	30.760958010135	1.331694535911
20	3178	32.092652546046	0.81036934344907
20	3224	32.903021889495	3.1532773459556
20	3595	36.056299235451	1.3567678672987
20	3740	37.41306710275	0.62209256840281
20	3779	38.035159671153	0.51271005312368
20	3835	38.547869724277	0.89103786254668
20	3902	39.438907586824	0.27754938215629
20	3928	39.71645696898	2.7104576395696
20	4218	42.42691460855	0.80033021561238
20	4324	43.227244824162	1.4757315836666
20	4486	44.702976407829	1.2976985231102
20	4588	46.000674930939	0.27596080514614
20	4602	46.276635736085	0.87716002954658
20	4687	47.153795765632	4.1655697529485
20	5049	51.31936551858	1.5416401319602
20	5218	52.86100565054	3.6515286497566
20	5620	56.512534300297	1.7798409590963
20	5898	58.292375259393	0.90886658215619
20	5963	59.201241841549	4.9842611794264
20	6504	64.185503020975	2.1830795276623
20	6725	66.368582548637	5.5428348866056
20	7286	71.911417435243	4.2993389247802
20	7675	76.210756360023	0.8013655850645
20	7779	77.012121945088	1.4227034621797
20	7934	78.434825407268	0.21834079173962
20	7942	78.653166199008	1.0110679986966
20	8042	79.664234197705	0.76119250373881
20	8114	80.425426701444	5.2361115310604
20	8641	85.661538232504	0.094236840727397
20	8654	85.755775073231	0.23898963858014
20	8693	85.994764711811	1.7820893606569
20	8881	87.776854072468	0.94882552370942
20	8988	88.725679596177	0.75121286093019
20	9093	89.476892457107	5.2876104648536
20	9718	94.764502921961	0.31798895588395
20	9746	95.082491877845	0.059818875775044
20	9748	95.14231075362	4.8754446861263
20	10273	100.017755439746	1.4856777996978
20	10461	101.503433239444	2.725802240115
20	10776	104.229235479559	2.0506460377176
20	10978	106.279881517277	0.27421303747037
20	11004	106.554094554747	0.98733799882189
20	11121	107.541432553569	3.8291917712639
20	11569	111.370624324833	0.58712106229119
20	11648	111.957745387124	2.4719647764489
20	11863	114.429710163573	3.7754678125536
20	12254	118.205177976127	0.50910627339379
20	12300	118.714284249521	3.2075198414095
20	12592	121.92180409093	0.40786779978083
20	12614	122.329671890711	2.3938621354669
20	12832	124.723534026178	2.2365533769125
20	13037	126.96008740309	13.142044350835
20	14459	140.102131753925	0.046971991023047
20	14465	140.149103744948	2.7501882445306
20	14708	142.899291989479	2.1988472067623
20	14915	145.098139196241	3.744692306603
20	15228	148.842831502844	0.89597016443027
20	15305	149.738801667274	2.0173481109622
20	15546	151.756149778236	1.7830561354885
20	15746	153.539205913724	3.0706779055256
20	16051	156.60988381925	2.0322774537761
20	16308	158.642161273026	0.31270479291022
20	16335	158.954866065936	1.3363010222404
20	16510	160.291167088176	1.3963419265148
20	16679	161.687509014691	5.9386027508144
20	17358	167.626111765505	3.2519413388856
20	17748	170.878053104391	4.7118232130592
20	18262	175.58987631745	0.10676977262253
20	18274	175.696646090073	0.38680306188013
20	18302	176.083449151953	0.34131168472146
20	18351	176.424760836674	0.38786137398118
20	18414	176.812622210655	1.5991336150664
20	18603	178.411755825721	0.077404078459718
20	18605	178.489159904181	0.73004134635424
20	18717	179.219201250535	0.80577133948644
20	18791	180.024972590021	4.9187475473112
20	19291	184.943720137332	1.188826944981
20	19401	186.132547082313	0.51328000420153
20	19449	186.645827086515	5.8397341962398
20	20048	192.485561282755	1.8204107550931
20	20229	194.305972037848	2.7782371044038
20	20512	197.084209142252	0.30034178319756
20	20547	197.38455092545	1.1362875572998
20	20647	198.52083848275	0.68124659821796
20	20714	199.202085080968	2.9829176402066
20	21015	202.185002721175	0.02993590045972
20	21016	202.214938621635	3.8492323200904
20	21472	206.064170941725	1.0162516354443
20	21560	207.080422577169	4.2408054001326
20	21986	211.321227977302	2.7313941608749
20	22289	214.052622138177	1.2205134296945
20	22397	215.273135567871	1.9348939518005
20	22613	217.208029519672	0.66614460182815
20	22712	217.8741741215	3.4075152829494
20	23156	221.281689404449	0.77426188302985
20	23245	222.055951287479	1.625532197103
20	23437	223.681483484582	3.7386293608005
20	23856	227.420112845383	0.0031242186814099
20	23857	227.423237064064	3.5857853299217
20	24258	231.009022393986	0.31332096151086
20	24292	231.322343355497	2.9687517758017
20	24567	234.291095131299	5.8084236076548
20	25256	240.099518738954	0.57837852244506
20	25330	240.677897261399	0.2747387134164
20	25358	240.952635974815	0.061171116567708
20	25366	241.013807091383	0.086976432344097
20	25377	241.100783523727	2.1736441493739
20	25567	243.274427673101	0.78652034422615
20	25652	244.060948017327	1.6940666820268
20	25821	245.755014699354	0.37248010847666
20	25845	246.127494807831	0.2117506350823
20	25875	246.339245442913	0.62622979466537
20	25967	246.965475237578	4.3850661025576
20	26451	251.350541340136	0.32362857463173
20	26479	251.674169914768	0.20490412321383
20	26496	251.879074037982	0.28653535992207
20	26543	252.165609397904	1.471390928983
20	26711	253.637000326887	2.3531548233169
20	26918	255.990155150204	2.6434494579908
20	27237	258.633604608195	0.32743906811222
20	27279	258.961043676307	0.50529687870829
20	27342	259.466340555015	2.864781023065
20	27614	262.33112157808	0.47597912332808
20	27680	262.807100701408	1.2130725788833
20	27821	264.020173280291	0.95527726602593
20	27928	264.975450546317	1.8189284110062
20	28078	266.794378957323	3.6514671587547
20	28486	270.445846116078	8.6570183539294
20	29521	279.102864470007	3.0612083376773
20	29861	282.164072807684	1.8680158347527
20	30052	284.032088642437	3.9853160504243
20	30460	288.017404692861	2.9246211275877
20	30801	290.942025820449	2.165416931827
20	31046	293.107442752276	2.0343936676134
20	31264	295.141836419889	0.7858416604016
20	31341	295.927678080291	2.1061085018369
20	31559	298.033786582128	0.62815190495445
20	31626	298.661938487082	0.14600198030961
20	31634	298.807940467392	0.93372531219715
20	31720	299.741665779589	7.8057170749991
20	32508	307.547382854588	2.2171257960527
20	32790	309.764508650641	0.5219145088671
20	32875	310.286423159508	1.402230403751
20	33049	311.688653563259	1.7212110265488
20	33298	313.409864589808	0.55312995772199
20	33343	313.96299454753	1.3294453344045
20	33480	315.292439881935	0.65151350281935
20	33535	315.943953384754	1.3425356896082
20	33664	317.286489074362	0.30303595094543
20	33709	317.589525025307	0.18915630405625
20	33746	317.778681329363	3.0018536554726
20	34018	320.780534984836	0.70424289964036
20	34100	321.484777884476	2.9753664030253
20	34467	324.460144287501	2.3980445458983
20	34774	326.858188833399	0.79546862429599
20	34832	327.653657457695	1.2229660789749
20	35009	328.87662353667	2.3762026576646
20	35269	331.252826194335	2.7310194229246
20	35544	333.98384561726	2.7066611824044
20	35810	336.690506799664	1.9493282628664
20	36017	338.63983506253	1.759609840498
20	36226	340.399444903028	1.6044099176992
20	36408	342.003854820727	0.35701103953488
20	36470	342.360865860262	4.8799764636411
20	36959	347.240842323903	5.5731719058737
20	37597	352.814014229777	0.26035206796291
20	37618	353.07436629774	0.94327166088401
20	37692	354.017637958624	3.2008581272323
20	38090	357.218496085856	1.7829612891778
20	38272	359.001457375034	0.012971435171059
20	38273	359.014428810205	0.44966067555294
20	38310	359.464089485758	0.26778925724596
20	38333	359.731878743004	0.23281719119157
20	38379	359.964695934196	1.1332123244273
20	38510	361.097908258623	0.029162929324609
20	38511	361.127071187948	1.0207951026694
20	38630	362.147866290617	1.6949869109406
20	38812	363.842853201558	1.8981999443317
20	39010	365.74105314589	0.1087986302034
20	39027	365.849851776093	0.87366545577647
20	39111	366.723517231869	0.46810304184917
20	39195	367.191620273718	3.1323368145226
20	39521	370.323957088241	2.1879448185027
20	39814	372.511901906744	0.79037056608386
20	39915	373.302272472828	1.045648736151
20	40000	374.347921208979	1.7400303579964
20	40201	376.087951566975	6.4226109661618
20	40955	382.510562533137	0.028287873056086
20	40958	382.538850406193	4.292895928547
20	41491	386.83174633474	0.026208015029218
20	41498	386.857954349769	1.3728400661776
20	41628	388.230794415947	2.7890374973493
20	41905	391.019831913296	1.2469128889464
20	42045	392.266744802242	0.25251241784992
20	42063	392.519257220092	0.79166593484772
20	42104	393.31092315494	2.923846470095
20	42417	396.234769625035	3.8444887598412
21	1851	18.370231218408	1.7105944658205
21	2038	20.080825684228	1.668706205796
21	2243	21.749531890024	1.6392399808175
21	2375	23.388771870842	1.6517434908608
21	2579	25.040515361703	0.030477134136607
21	2583	25.07099249584	4.9986386662519
21	2999	30.069631162092	0.095542524552663
21	3006	30.165173686645	1.0592755150931
21	3109	31.224449201738	3.5351802659004
21	3429	34.759629467638	0.84647759578734
21	3523	35.606107063425	1.2063957283185
21	3676	36.812502791743	7.8361548132102
21	4475	44.648657604953	3.2373957159884
21	4741	47.886053320941	1.0387602011078
21	4861	48.924813522049	2.5757152703309
21	5069	51.50052879238	1.7179654997271
21	5232	53.218494292107	0.4277289792186
21	5310	53.646223271326	5.7553807887098
21	5995	59.401604060036	0.098306274399943
21	6006	59.499910334436	1.9473301536243
21	6255	61.44724048806	0.9822330622038
21	6345	62.429473550264	1.643345313799
21	6490	64.072818864063	0.30353516290895
21	6526	64.376354026972	0.98028661388384
21	6630	65.356640640856	0.31691246504412
21	6677	65.6735531059	1.5251957017526
21	6774	67.198748807653	0.25540473441776
21	6793	67.454153542071	2.568237142592
21	7090	70.022390684663	2.3379238746007
21	7325	72.360314559264	1.3371713983062
21	7430	73.69748595757	0.87448101932026
21	7533	74.57196697689	1.963368211029
21	7716	76.535335187919	1.0517655384274
21	7816	77.587100726346	0.812491571975
21	7926	78.399592298321	0.26910699006339
21	7943	78.668699288384	2.0687059774562
21	8151	80.73740526584	2.3862451810787
21	8399	83.123650446919	0.053677701538695
21	8408	83.177328148458	4.2622636278948
21	8846	87.439591776353	0.61286371662543
21	8913	88.052455492978	2.0101770932112
21	9153	90.062632586189	0.30355101854913
21	9203	90.366183604738	0.55635819724815
21	9277	90.922541801986	0.7341930300999
21	9351	91.656734832086	0.9103057757054
21	9412	92.567040607791	0.49392799196472
21	9453	93.060968599756	3.1304782026132
21	9867	96.191446802369	0.04021894977827
21	9871	96.231665752147	1.8996039088101
21	10082	98.131269660957	0.92027016997955
21	10167	99.051539830937	1.5183028099719
21	10345	100.569842640909	3.3409765925524
21	10740	103.910819233461	8.0469183785865
21	11647	111.957737612048	3.3731664818343
21	11939	115.330904093882	1.2803938127455
21	12077	116.611297906628	0.89396126714871
21	12160	117.505259173777	0.3683981496324
21	12201	117.873657323409	2.3124716604289
21	12419	120.186128983838	1.3348377783382
21	12549	121.520966762176	3.4644997753555
21	12866	124.985466537531	1.5722243031779
21	13003	126.557690840709	1.4889769515576
21	13112	128.046667792267	1.2209915700196
21	13277	129.267659362287	0.23321094696917
21	13305	129.500870309256	6.3212477518238
21	14007	135.82211806108	0.41374709167645
21	14048	136.235865152756	1.1721414652184
21	14144	137.408006617974	5.7201339931319
21	14735	143.128140611106	4.5361046004793
21	15107	147.664245211585	3.4957816185701
21	15482	151.160026830155	0.1117976466687
21	15495	151.271824476824	0.58839413281105
21	15553	151.860218609635	1.5921327264061
21	15740	153.452351336041	1.6751422509943
21	15899	155.127493587035	1.9277660892322
21	16105	157.055259676267	1.4236262567148
21	16279	158.478885932982	2.5852283075272
21	16596	161.064114240509	2.0632735152633
21	16864	163.127387755772	1.2563734266279
21	17028	164.3837611824	1.1556061182587
21	17174	165.539367300659	0.52449995934793
21	17217	166.063867260007	1.4126248251654
21	17333	167.476492085172	0.70929796641198
21	17409	168.185790051584	3.0940846923247
21	17782	171.279874743909	2.5760280340103
21	18072	173.855902777919	1.0241161533289
21	18195	174.880018931248	3.2561884006174
21	18574	178.136207331865	0.10959410688529
21	18582	178.24580143875	3.1250436686978
21	18911	181.370845107448	7.9499817191332
21	19687	189.320826826581	0.33715448182636
21	19751	189.657981308407	0.15012591226017
21	19776	189.808107220667	0.43765175815604
21	19804	190.245758978823	2.0362433738589
21	20030	192.282002352682	0.97111102379629
21	20142	193.253113376478	2.4325014727087
21	20357	195.685614849187	2.0416844239105
21	20574	197.727299273098	2.3331757230277
21	20827	200.060474996126	0.64879267840805
21	20879	200.709267674534	2.4102537760852
21	21153	203.119521450619	1.9006022781537
21	21357	205.020123728773	3.2166967866698
21	21713	208.236820515443	1.5385804751861
21	21841	209.775400990629	4.1553727402015
21	22277	213.93077373083	1.9367340452726
21	22459	215.867507776103	0.39903966079755
21	22507	216.266547436901	2.9849024971959
21	22869	219.251449934097	0.80130536986504
21	23016	220.052755303962	0.52225295467352
21	23101	220.575008258636	1.8440407820986
21	23267	222.419049040735	1.1755422618695
21	23421	223.594591302605	1.6401205585525
21	23617	225.234711861157	0.48832677926251
21	23681	225.72303864042	1.1734757250214
21	23810	226.896514365441	1.9474980667234
21	24015	228.844012432164	0.46258814933975
21	24058	229.306600581504	0.57620738129118
21	24126	229.882807962795	5.5737613976482
21	24730	235.456569360443	3.8216891100976
21	25146	239.278258470541	0.56064528644352
21	25213	239.838903756985	0.19033317259361
21	25250	240.029236929579	2.598085456089
21	25508	242.627322385668	3.5631570887155
21	25848	246.190479474384	0.13731378585797
21	25873	246.327793260242	3.4647595960023
21	26294	249.792552856244	0.091920780664817
21	26303	249.884473636909	0.30837512556566
21	26331	250.192848762475	0.5375426761015
21	26388	250.730391438576	2.4455349514207
21	26672	253.175926389997	2.2181546249994
21	26870	255.394081014996	0.96584562003412
21	26961	256.35992663503	3.6522196104448
21	27397	260.012146245475	1.3332782624119
21	27547	261.345424507887	0.99847987749511
21	27615	262.343904385382	3.6989198901761
21	28018	266.042824275558	0.71687722777356
21	28075	266.759701503332	0.95846677678009
21	28182	267.718168280112	0.59221675483335
21	28258	268.310385034945	2.0410987033202
21	28479	270.351483738265	4.8641926894448
21	29036	275.21567642771	7.7630355595855
21	29940	282.978711987295	1.0123537465523
21	30048	283.991065733847	1.5197391895751
21	30238	285.510804923422	0.12609512998755
21	30246	285.63690005341	0.20376570854202
21	30260	285.840665761952	0.67808882410807
21	30317	286.51875458606	0.29201583006906
21	30337	286.810770416129	0.6217566300033
21	30397	287.432527046132	0.52859809734562
21	30457	287.961125143478	0.014132502410022
21	30458	287.975257645888	1.9546062479012
21	30683	289.929863893789	0.67446765507057
21	30783	290.60433154886	7.2258589729502
21	31535	297.83019052181	0.67437170494387
21	31609	298.504562226754	0.7330391885527
21	31682	299.237601415307	4.0171987184557
21	32097	303.254800133763	0.54068058550199
21	32150	303.795480719265	1.3357578385819
21	32298	305.131238557847	1.7731748084228
21	32434	306.90441336627	0.21219455191948
21	32455	307.116607918189	0.024660779340707
21	32456	307.14126869753	0.48251266725286
21	32514	307.623781364783	2.3888233608653
21	32829	310.012604725648	0.83640305312379
21	32973	310.849007778772	2.1674495721275
21	33223	313.016457350899	2.2162461369008
21	33474	315.2327034878	0.56642262703966
21	33522	315.79912611484	0.35208230984809
21	33554	316.151208424688	1.0059261836519
21	33655	317.15713460834	0.18631536499384
21	33672	317.343449973334	0.75058192798641
21	33772	318.09403190132	1.0611345637257
21	33860	319.155166465046	0.79911556047755
21	33920	319.954282025524	5.2123962332503
21	34571	325.166678258774	0.099947664473447
21	34580	325.266625923247	0.78480712077359
21	34679	326.051433044021	3.5553741417197
21	35101	329.606807185741	0.44929274360431
21	35159	330.056099929345	1.6667293226412
21	35290	331.722829251986	1.7376889640637
21	35488	333.46051821605	2.8208463091235
21	35762	336.281364525173	1.2421812400302
21	35914	337.523545765203	4.1238050943153
21	36367	341.647350859518	3.6480105088186
21	36746	345.295361368337	0.3415019991903
21	36793	345.636863367527	0.063625502649866
21	36794	345.700488870177	0.036705177965668
21	36795	345.737194048143	2.0722405004412
21	37023	347.809434548584	2.0831769824774
21	37230	349.892611531061	1.6196173615484
21	37441	351.512228892609	0.36242358179908
21	37469	351.874652474408	1.5594532202812
21	37641	353.434105694689	1.1837074821966
21	37776	354.617813176886	0.88557579538299
21	37880	355.503388972269	0.60010653979154
21	37983	356.103495512061	3.5141771123559
21	38321	359.617672624417	3.0008318401069
21	38675	362.618504464524	1.3362321909976
21	38829	363.954736655522	1.1044351691444
21	38941	365.059171824666	0.41950786785709
21	38994	365.478679692523	0.35564426337253
21	39026	365.834323955896	1.4191771759263
21	39214	367.253501131822	0.24622738574445
21	39239	367.499728517566	0.62012732406186
21	39303	368.119855841628	3.7154952394065
21	39744	371.835351081035	1.8936378654556
21	39948	373.728988946491	1.7179970546738
21	40100	375.446986001165	1.2197148733497
21	40262	376.666700874515	3.2858801500163
21	40648	379.952581024531	2.8802133061404
21	40994	382.832794330671	2.312202408455
21	41295	385.144996739126	1.6171202476437
21	41469	386.76211698677	5.4152390123678
21	42039	392.177355999138	5.0667664399067
21	42528	397.244122439045	0.79201139446404
21	42602	398.036133833509	1.5265535025962
21	42791	399.562687336105	5.5934251167177

