version 2
run Nonmonitoring-exponential-513-20210224-17:49:30-27052
attr configname Nonmonitoring-exponential
attr datetime 20210224-17:49:30
attr experiment Nonmonitoring-exponential
attr inifile aerocom.ini
attr iterationvars $0=50
attr iterationvarsf 50-
attr measurement $0=50
attr network Aerocom
attr processid 27052
attr repetition 13
attr replication #13
attr resultdir results
attr runnumber 513
attr seedset 13
param **.t 2s
param **.k 50ms
param **.X 0.05s
param **.m 1s
param **.tDistribution "\"exponential\""
param **.operationMode 1
param **.s "70 byte"
param **.dimPoolMax 10000
param **.dimPoolMin 8000
param **.nDL 16
param **.nA 1
param **.DLMaxCapacity 0
param **.trasmitting false

vector 0 Aerocom.aircraft[0].packetGenerator arrivalTime:vector ETV
attr "" ""
attr source computeArrivalTime
vector 1 Aerocom.aircraft[0].linkSelector waitingTime:vector ETV
attr "" ""
attr source computeWaitingTime
vector 2 Aerocom.aircraft[0].linkSelector queueLength:vector ETV
attr "" ""
attr source computeQueueLength
vector 3 Aerocom.aircraft[0].dataLink[12] actualCapacity:vector ETV
attr "" ""
attr source computeActualCapacity
vector 4 Aerocom.aircraft[0].linkSelector serviceTime:vector ETV
attr "" ""
attr source computeServiceTime
vector 5 Aerocom.aircraft[0].linkSelector responseTime:vector ETV
attr "" ""
attr source computeResponseTime
vector 6 Aerocom.aircraft[0].dataLink[7] tDistribution:vector ETV
attr "" ""
attr source computeTDistribution
vector 7 Aerocom.aircraft[0].dataLink[6] tDistribution:vector ETV
attr "" ""
attr source computeTDistribution
vector 8 Aerocom.aircraft[0].dataLink[8] tDistribution:vector ETV
attr "" ""
attr source computeTDistribution
vector 9 Aerocom.aircraft[0].dataLink[4] tDistribution:vector ETV
attr "" ""
attr source computeTDistribution
vector 10 Aerocom.aircraft[0].dataLink[5] tDistribution:vector ETV
attr "" ""
attr source computeTDistribution
vector 11 Aerocom.aircraft[0].dataLink[13] tDistribution:vector ETV
attr "" ""
attr source computeTDistribution
vector 12 Aerocom.aircraft[0].dataLink[0] tDistribution:vector ETV
attr "" ""
attr source computeTDistribution
vector 13 Aerocom.aircraft[0].dataLink[11] tDistribution:vector ETV
attr "" ""
attr source computeTDistribution
vector 14 Aerocom.aircraft[0].dataLink[14] tDistribution:vector ETV
attr "" ""
attr source computeTDistribution
vector 15 Aerocom.aircraft[0].dataLink[9] tDistribution:vector ETV
attr "" ""
attr source computeTDistribution
vector 16 Aerocom.aircraft[0].dataLink[10] tDistribution:vector ETV
attr "" ""
attr source computeTDistribution
vector 17 Aerocom.aircraft[0].dataLink[3] tDistribution:vector ETV
attr "" ""
attr source computeTDistribution
vector 18 Aerocom.aircraft[0].dataLink[12] tDistribution:vector ETV
attr "" ""
attr source computeTDistribution
vector 19 Aerocom.aircraft[0].dataLink[15] tDistribution:vector ETV
attr "" ""
attr source computeTDistribution
vector 20 Aerocom.aircraft[0].dataLink[1] tDistribution:vector ETV
attr "" ""
attr source computeTDistribution
vector 21 Aerocom.aircraft[0].dataLink[2] tDistribution:vector ETV
attr "" ""
attr source computeTDistribution
0	1104	10.004568394879	0.00206537528
0	1106	10.006633770159	0.082310591339
0	1114	10.088944361498	0.089500530025
0	1122	10.178444891523	0.117920330137
0	1127	10.29636522166	0.029066758924
0	1132	10.325431980584	0.052425629927
0	1137	10.377857610511	0.018348846829
0	1142	10.39620645734	0.015735181763
0	1147	10.411941639103	0.013283770665
0	1152	10.425225409768	0.001672127642
0	1154	10.42689753741	0.02890691692
0	1162	10.45580445433	0.002518506759
0	1164	10.458322961089	0.008858230316
0	1169	10.467181191405	0.031050272744
0	1177	10.498231464149	0.043537611154
0	1183	10.541769075303	0.00922248401
0	1188	10.550991559313	0.013334234069
0	1193	10.564325793382	0.128317262729
0	1201	10.692643056111	0.035047874623
0	1206	10.727690930734	0.041357605451
0	1211	10.769048536185	0.001783413186
0	1213	10.770831949371	0.008667387494
0	1218	10.779499336865	0.01236820592
0	1226	10.791867542785	0.022253606398
0	1231	10.814121149183	0.091042885638
0	1237	10.905164034821	0.002393748119
0	1239	10.90755778294	0.038142328073
0	1247	10.945700111013	0.025438275859
0	1252	10.971138386872	0.005651282462
0	1255	10.976789669334	0.141602744388
0	1263	11.118392413722	0.017961208933
0	1268	11.136353622655	0.07167687123
0	1274	11.208030493885	5.4910698e-05
0	1276	11.208085404583	0.025029418369
0	1285	11.233114822952	0.152102930028
0	1292	11.38521775298	0.077090728518
0	1298	11.462308481498	0.033477795382
0	1303	11.49578627688	0.020345141096
0	1308	11.516131417976	0.005330557796
0	1310	11.521461975772	0.009269447361
0	1315	11.530731423133	0.12844737987
0	1324	11.659178803003	0.056630771401
0	1329	11.715809574404	0.011376397357
0	1335	11.727185971761	0.093451371035
0	1340	11.820637342796	0.018419920339
0	1345	11.839057263135	0.024485324321
0	1350	11.863542587456	0.028031146032
0	1355	11.891573733488	0.00957696661
0	1360	11.901150700098	0.00396354201
0	1362	11.905114242108	0.041885294587
0	1372	11.946999536695	0.007754230818
0	1377	11.954753767513	0.206811198686
0	1382	12.161564966199	0.039790511687
0	1387	12.201355477886	0.037660417732
0	1393	12.239015895618	0.042075550869
0	1399	12.281091446487	0.028830133059
0	1404	12.309921579546	0.056021436768
0	1409	12.365943016314	0.122522032846
0	1415	12.48846504916	0.056428837909
0	1421	12.544893887069	0.065930261362
0	1428	12.610824148431	0.013675810131
0	1433	12.624499958562	0.007902062391
0	1438	12.632402020953	0.028069267169
0	1443	12.660471288122	0.011195168081
0	1448	12.671666456203	0.050177985543
0	1454	12.721844441746	0.027417569699
0	1460	12.749262011445	0.203835669131
0	1465	12.953097680576	0.005433128929
0	1467	12.958530809505	0.060914810799
0	1476	13.019445620304	0.046069736319
0	1482	13.065515356623	0.054687071084
0	1487	13.120202427707	0.014073398994
0	1493	13.134275826701	0.095622893245
0	1498	13.229898719946	0.2005125394
0	1504	13.430411259346	0.014172848067
0	1509	13.444584107413	0.004209124866
0	1511	13.448793232279	0.073448110514
0	1519	13.522241342793	0.050503253583
0	1524	13.572744596376	0.040968912707
0	1530	13.613713509083	0.006010291126
0	1532	13.619723800209	0.048168280415
0	1540	13.667892080624	0.014797272149
0	1545	13.682689352773	0.024901571462
0	1550	13.707590924235	0.019562822832
0	1555	13.727153747067	0.04643070996
0	1560	13.773584457027	0.054975271054
0	1566	13.828559728081	0.020697141558
0	1571	13.849256869639	0.083837752275
0	1578	13.933094621914	0.05256301119
0	1586	13.985657633104	0.090383500896
0	1591	14.076041134	0.050774181495
0	1596	14.126815315495	0.019690204445
0	1601	14.14650551994	0.009533093249
0	1606	14.156038613189	0.094338059507
0	1611	14.250376672696	0.070342648961
0	1618	14.320719321657	0.082063582332
0	1623	14.402782903989	0.022601142144
0	1629	14.425384046133	0.245769652783
0	1636	14.671153698916	0.071732826374
0	1641	14.74288652529	0.165161381086
0	1647	14.908047906376	0.026804137064
0	1652	14.93485204344	0.014413334848
0	1657	14.949265378288	0.065400216584
0	1662	15.014665594872	0.151916002643
0	1668	15.166581597515	0.005479804747
0	1670	15.172061402262	0.018413328592
0	1678	15.190474730854	0.028238899435
0	1683	15.218713630289	0.068784237027
0	1689	15.287497867316	0.040205377381
0	1695	15.327703244697	0.011346947246
0	1700	15.339050191943	0.008385529278
0	1705	15.347435721221	0.014283025454
0	1710	15.361718746675	0.170079721557
0	1717	15.531798468232	0.063867085837
0	1722	15.595665554069	0.241069060163
0	1731	15.836734614232	0.028349029817
0	1736	15.865083644049	0.064638156349
0	1741	15.929721800398	0.009248772649
0	1746	15.938970573047	0.115707372035
0	1751	16.054677945082	0.015791695035
0	1756	16.070469640117	0.120888962246
0	1762	16.191358602363	0.153706594073
0	1768	16.345065196436	0.032999977736
0	1773	16.378065174172	0.029009754739
0	1778	16.407074928911	0.017359607709
0	1783	16.42443453662	0.025391566495
0	1789	16.449826103115	0.086744856893
0	1794	16.536570960008	0.025434590378
0	1799	16.562005550386	0.010443278399
0	1805	16.572448828785	0.013061250161
0	1810	16.585510078946	0.067735512866
0	1816	16.653245591812	0.041110129316
0	1821	16.694355721128	0.023961091424
0	1826	16.718316812552	0.031135976138
0	1831	16.74945278869	0.024834183623
0	1836	16.774286972313	0.019782821104
0	1841	16.794069793417	0.085989678197
0	1847	16.880059471614	0.092967973689
0	1853	16.973027445303	0.059327986535
0	1859	17.032355431838	0.05709158973
0	1865	17.089447021568	0.044397248082
0	1870	17.13384426965	0.033278547775
0	1875	17.167122817425	0.080339693825
0	1880	17.24746251125	0.042509995059
0	1885	17.289972506309	0.023791993117
0	1891	17.313764499426	0.080796782882
0	1897	17.394561282308	0.037178827809
0	1902	17.431740110117	0.031849924966
0	1907	17.463590035083	0.011328125272
0	1912	17.474918160355	0.05708732439
0	1919	17.532005484745	0.137929311443
0	1924	17.669934796188	0.030474337407
0	1929	17.700409133595	0.102197555459
0	1934	17.802606689054	0.014270185471
0	1939	17.816876874525	0.087929100634
0	1944	17.904805975159	0.067231577214
0	1951	17.972037552373	0.010908446063
0	1956	17.982945998436	0.007312612845
0	1958	17.990258611281	0.008365465972
0	1963	17.998624077253	0.167246721597
0	1972	18.16587079885	0.073820880703
0	1977	18.239691679553	0.01398913408
0	1982	18.253680813633	0.014026898017
0	1987	18.26770771165	0.003253542678
0	1990	18.270961254328	0.102307711404
0	2000	18.373268965732	0.017410778129
0	2005	18.390679743861	0.196135111709
0	2013	18.58681485557	0.046368295563
0	2019	18.633183151133	0.009584699917
0	2024	18.64276785105	0.01542620159
0	2029	18.65819405264	0.027852394526
0	2034	18.686046447166	0.050433709701
0	2039	18.736480156867	0.099689032989
0	2044	18.836169189856	0.045596497568
0	2049	18.881765687424	0.09855831573
0	2055	18.980324003154	0.016106698755
0	2060	18.996430701909	0.048544534761
0	2065	19.04497523667	0.056021783081
0	2070	19.100997019751	0.011385701113
0	2075	19.112382720864	0.080306113225
0	2080	19.192688834089	0.005207609651
0	2082	19.19789644374	0.14928063652
0	2091	19.34717708026	0.104696688582
0	2096	19.451873768842	0.04352038574
0	2102	19.495394154582	0.327052153484
0	2111	19.822446308066	0.012978192831
0	2116	19.835424500897	0.083528055432
0	2123	19.918952556329	0.016475359345
0	2128	19.935427915674	0.073039328918
0	2133	20.008467244592	0.315693456422
0	2140	20.324160701014	0.00146203865
0	2142	20.325622739664	0.103066019765
0	2150	20.428688759429	0.045572007756
0	2156	20.474260767185	0.036099269922
0	2161	20.510360037107	0.202438046197
0	2167	20.712798083304	0.013554797327
0	2172	20.726352880631	0.041940893025
0	2177	20.768293773656	0.052520574123
0	2184	20.820814347779	0.089767495535
0	2192	20.910581843314	0.063235769885
0	2198	20.973817613199	0.028538325239
0	2204	21.002355938438	0.01915278244
0	2209	21.021508720878	0.08108910651
0	2214	21.102597827388	0.023801644899
0	2219	21.126399472287	0.027098863827
0	2224	21.153498336114	0.011111688936
0	2229	21.16461002505	0.017179305258
0	2234	21.181789330308	0.051040392273
0	2239	21.232829722581	0.000401231359
0	2241	21.23323095394	0.033474529084
0	2249	21.266705483024	0.134994140097
0	2255	21.401699623121	0.007684675045
0	2257	21.409384298166	0.012868171008
0	2265	21.422252469174	0.036628816847
0	2272	21.458881286021	0.051901814899
0	2278	21.51078310092	0.047047898074
0	2285	21.557830998994	0.122411480012
0	2292	21.680242479006	0.041520790657
0	2297	21.721763269663	0.007524206403
0	2299	21.729287476066	0.028493163444
0	2307	21.75778063951	0.040465579939
0	2314	21.798246219449	0.010801602256
0	2320	21.809047821705	0.047698535939
0	2325	21.856746357644	0.125136457784
0	2331	21.981882815428	0.022125049842
0	2337	22.00400786527	0.079403047969
0	2342	22.083410913239	0.022512862994
0	2347	22.105923776233	0.01374819875
0	2352	22.119671974983	0.009363153338
0	2357	22.129035128321	0.032157331655
0	2362	22.161192459976	0.171577516606
0	2370	22.332769976582	0.007945389223
0	2373	22.340715365805	0.122025469821
0	2381	22.462740835626	0.025622925801
0	2386	22.488363761427	0.127655740792
0	2394	22.616019502219	0.077561633493
0	2399	22.693581135712	0.027364803817
0	2404	22.720945939529	0.037019838825
0	2409	22.757965778354	0.002847283078
0	2411	22.760813061432	0.123851310544
0	2422	22.884664371976	0.124883477555
0	2429	23.009547849531	0.002866045201
0	2431	23.012413894732	7.117904e-05
0	2433	23.012485073772	0.110592282391
0	2444	23.123077356163	0.052967187638
0	2449	23.176044543801	0.128396500591
0	2456	23.304441044392	0.027146834908
0	2462	23.3315878793	0.030072449628
0	2467	23.361660328928	0.002788680268
0	2469	23.364449009196	0.060783294649
0	2478	23.425232303845	0.054738195739
0	2484	23.479970499584	0.031344385587
0	2489	23.511314885171	0.005252333848
0	2491	23.516567219019	0.007171283721
0	2496	23.52373850274	0.012912364803
0	2504	23.536650867543	0.00117714394
0	2506	23.537828011483	0.009747129569
0	2511	23.547575141052	0.01574985144
0	2519	23.563324992492	0.090189055007
0	2526	23.653514047499	0.069492004513
0	2531	23.723006052012	0.077137545002
0	2536	23.800143597014	0.00959921414
0	2541	23.809742811154	0.027871122053
0	2547	23.837613933207	0.075125866274
0	2552	23.912739799481	0.028690599053
0	2557	23.941430398534	0.003043916448
0	2559	23.944474314982	0.048727828023
0	2567	23.993202143005	0.040162968478
0	2573	24.033365111483	0.030849046984
0	2578	24.064214158467	0.006072931044
0	2580	24.070287089511	0.036476644196
0	2588	24.106763733707	0.011642195545
0	2593	24.118405929252	0.021252261
0	2598	24.139658190252	0.001522876413
0	2600	24.141181066665	0.069705143309
0	2608	24.210886209974	0.049208065738
0	2613	24.260094275712	0.053565844854
0	2620	24.313660120566	0.013931501017
0	2625	24.327591621583	0.057252124839
0	2630	24.384843746422	0.044511536789
0	2636	24.429355283211	0.000758423654
0	2638	24.430113706865	0.048487528993
0	2646	24.478601235858	0.028420045445
0	2653	24.507021281303	0.026480757067
0	2659	24.53350203837	0.013521611739
0	2664	24.547023650109	0.117819273716
0	2671	24.664842923825	0.029123821544
0	2676	24.693966745369	0.037336842822
0	2681	24.731303588191	0.050858402034
0	2688	24.782161990225	0.037623767348
0	2693	24.819785757573	0.049058134583
0	2701	24.868843892156	0.048129537493
0	2706	24.916973429649	0.067711822631
0	2712	24.98468525228	0.052304482907
0	2717	25.036989735187	0.002290659312
0	2719	25.039280394499	0.032364940732
0	2727	25.071645335231	0.007874734515
0	2732	25.079520069746	0.002671871092
0	2734	25.082191940838	0.015836806877
0	2743	25.098028747715	0.119221774521
0	2750	25.217250522236	0.069957755756
0	2756	25.287208277992	0.076952812921
0	2762	25.364161090913	0.063232618042
0	2769	25.427393708955	0.017399544333
0	2774	25.444793253288	0.015603841092
0	2779	25.46039709438	0.115245985826
0	2784	25.575643080206	0.047483772795
0	2790	25.623126853001	0.032794673243
0	2795	25.655921526244	0.034578411287
0	2800	25.690499937531	0.022818489156
0	2805	25.713318426687	0.025639205461
0	2810	25.738957632148	0.263797985455
0	2817	26.002755617603	0.026362853265
0	2822	26.029118470868	0.102078934572
0	2827	26.13119740544	0.083454837659
0	2834	26.214652243099	0.135227733302
0	2840	26.349879976401	0.035833660323
0	2846	26.385713636724	0.00332153081
0	2848	26.389035167534	0.037617520972
0	2856	26.426652688506	0.083669850792
0	2862	26.510322539298	0.01520933686
0	2868	26.525531876158	0.029835698715
0	2873	26.555367574873	0.066465756483
0	2878	26.621833331356	0.005536869419
0	2880	26.627370200775	0.156666559817
0	2888	26.784036760592	0.105710071462
0	2893	26.889746832054	0.002242731925
0	2895	26.891989563979	0.059441598591
0	2903	26.95143116257	0.009413642957
0	2908	26.960844805527	0.006254751365
0	2910	26.967099556892	0.192201397648
0	2918	27.15930095454	0.159830472482
0	2923	27.319131427022	0.000978001666
0	2925	27.320109428688	0.156108301883
0	2933	27.476217730571	0.003747971782
0	2935	27.479965702353	0.018746217463
0	2943	27.498711919816	0.003911677124
0	2945	27.50262359694	0.161571731901
0	2955	27.664195328841	0.042060168115
0	2960	27.706255496956	0.017033544325
0	2965	27.723289041281	0.021902511554
0	2970	27.745191552835	0.0122189077
0	2975	27.757410460535	0.0641625199
0	2981	27.821572980435	0.030918922847
0	2986	27.852491903282	0.049301175543
0	2991	27.901793078825	0.113691983924
0	2996	28.015485062749	0.018018772835
0	3002	28.033503835584	0.009519433277
0	3007	28.043023268861	0.022089536367
0	3012	28.065112805228	0.020603199218
0	3017	28.085716004446	0.035175173335
0	3023	28.120891177781	0.055582661645
0	3028	28.176473839426	0.009536834135
0	3033	28.186010673561	0.113613540113
0	3039	28.299624213674	0.002437710085
0	3041	28.302061923759	0.135588487428
0	3052	28.437650411187	0.091701331204
0	3057	28.529351742391	0.026624849763
0	3062	28.555976592154	0.020064624432
0	3067	28.576041216586	0.03997491247
0	3072	28.616016129056	0.079011601194
0	3077	28.69502773025	0.063395212634
0	3082	28.758422942884	0.041162666192
0	3087	28.799585609076	0.063253573216
0	3092	28.862839182292	5.0387802e-05
0	3094	28.862889570094	0.038842241509
0	3102	28.901731811603	0.005620005288
0	3104	28.907351816891	0.281474987043
0	3113	29.188826803934	0.022541576597
0	3119	29.211368380531	0.037729595633
0	3124	29.249097976164	0.056062926381
0	3131	29.305160902545	0.14689042437
0	3136	29.452051326915	0.054287464484
0	3141	29.506338791399	0.077152534282
0	3146	29.583491325681	0.00534261338
0	3148	29.588833939061	0.149198210884
0	3156	29.738032149945	0.004823138239
0	3158	29.742855288184	0.005917897249
0	3163	29.748773185433	0.004228237194
0	3165	29.753001422627	0.001730469066
0	3170	29.754731891693	0.055418419753
0	3182	29.810150311446	0.040795498798
0	3187	29.850945810244	0.066710927536
0	3193	29.91765673778	0.010113445406
0	3198	29.927770183186	0.066455971037
0	3205	29.994226154223	0.128424170762
0	3213	30.122650324985	0.041887392706
0	3219	30.164537717691	0.14753248432
0	3224	30.312070202011	0.001757069203
0	3226	30.313827271214	0.012782050481
0	3231	30.326609321695	0.176421635411
0	3241	30.503030957106	0.081868759202
0	3247	30.584899716308	0.100450728198
0	3252	30.685350444506	0.071954804646
0	3257	30.757305249152	0.003691711941
0	3259	30.760996961093	0.055846283423
0	3268	30.816843244516	0.027292110746
0	3274	30.844135355262	0.03995938714
0	3279	30.884094742402	0.006982364586
0	3281	30.891077106988	0.01925896783
0	3289	30.910336074818	0.102650725329
0	3296	31.012986800147	0.030615078406
0	3301	31.043601878553	0.177513769636
0	3307	31.221115648189	0.00453577483
0	3309	31.225651423019	0.063882683425
0	3318	31.289534106444	0.002767493523
0	3320	31.292301599967	0.005558679993
0	3325	31.29786027996	0.03079546777
0	3333	31.32865574773	0.002430797529
0	3335	31.331086545259	0.032948016525
0	3344	31.364034561784	0.040073426283
0	3349	31.404107988067	0.003991199714
0	3351	31.408099187781	0.05284836235
0	3360	31.460947550131	0.015802810239
0	3365	31.47675036037	0.061498765137
0	3370	31.538249125507	0.020411000515
0	3375	31.558660126022	0.023761587171
0	3380	31.582421713193	0.133430922438
0	3388	31.715852635631	0.034410845903
0	3394	31.750263481534	0.03700177209
0	3399	31.787265253624	0.198327464797
0	3404	31.985592718421	0.063242171703
0	3409	32.048834890124	0.045465466425
0	3414	32.094300356549	0.045102809215
0	3420	32.139403165764	0.010704486474
0	3425	32.150107652238	0.008977228563
0	3430	32.159084880801	0.027095785386
0	3436	32.186180666187	0.108418912334
0	3443	32.294599578521	0.025449501593
0	3448	32.320049080114	0.105605773332
0	3454	32.425654853446	0.00981811705
0	3460	32.435472970496	0.027674124686
0	3465	32.463147095182	0.127539699726
0	3470	32.590686794908	0.014308151897
0	3475	32.604994946805	0.010856592671
0	3480	32.615851539476	0.019205513839
0	3485	32.635057053315	0.048428378994
0	3491	32.683485432309	0.03537689282
0	3497	32.718862325129	0.007675115574
0	3499	32.726537440703	0.00776332491
0	3504	32.734300765613	0.017064361911
0	3512	32.751365127524	0.127885007657
0	3517	32.879250135181	0.270808636345
0	3522	33.150058771526	0.043475626188
0	3527	33.193534397714	0.089732270491
0	3532	33.283266668205	0.143245682685
0	3537	33.42651235089	0.007964114611
0	3539	33.434476465501	0.042508776897
0	3547	33.476985242398	0.040265387181
0	3553	33.517250629579	0.101935711532
0	3559	33.619186341111	0.013224679864
0	3565	33.632411020975	0.041512601647
0	3570	33.673923622622	0.072117983834
0	3577	33.746041606456	0.003150308865
0	3579	33.749191915321	0.127661462964
0	3589	33.876853378285	0.076167204155
0	3595	33.95302058244	0.002831396352
0	3597	33.955851978792	0.084153552187
0	3605	34.040005530979	0.013108660122
0	3610	34.053114191101	0.009905161013
0	3616	34.063019352114	0.042329901787
0	3621	34.105349253901	0.04906308739
0	3626	34.154412341291	0.123312525673
0	3632	34.277724866964	0.021846374139
0	3637	34.299571241103	0.047097387446
0	3643	34.346668628549	0.020517872581
0	3648	34.36718650113	0.086674892302
0	3653	34.453861393432	0.039846114784
0	3658	34.493707508216	0.005156512208
0	3660	34.498864020424	0.096239582136
0	3669	34.59510360256	0.018868002915
0	3674	34.613971605475	0.023785859067
0	3679	34.637757464542	0.010207312616
0	3684	34.647964777158	0.007686662359
0	3687	34.655651439517	0.233830060272
0	3695	34.889481499789	0.245172914321
0	3704	35.13465441411	0.02145198527
0	3709	35.15610639938	0.011619411757
0	3714	35.167725811137	0.026446323542
0	3719	35.194172134679	0.025242562993
0	3724	35.219414697672	0.03537425882
0	3729	35.254788956492	0.109632798779
0	3736	35.364421755271	0.066029868861
0	3742	35.430451624132	0.027610661594
0	3747	35.458062285726	0.029406743461
0	3752	35.487469029187	0.123106725347
0	3757	35.610575754534	0.003327638071
0	3759	35.613903392605	0.000536850167
0	3761	35.614440242772	0.070589662896
0	3772	35.685029905668	0.012090091738
0	3777	35.697119997406	0.039470629568
0	3782	35.736590626974	0.022593133296
0	3787	35.75918376027	0.077640053444
0	3794	35.836823813714	0.029383479776
0	3799	35.86620729349	0.051988666434
0	3804	35.918195959924	0.041103352741
0	3811	35.959299312665	0.004333934462
0	3813	35.963633247127	0.018741767994
0	3821	35.982375015121	0.003526422052
0	3823	35.985901437173	0.095695642953
0	3832	36.081597080126	0.02024185675
0	3837	36.101838936876	0.132779440869
0	3843	36.234618377745	0.052351887706
0	3848	36.286970265451	0.010521176357
0	3853	36.297491441808	0.096779828485
0	3858	36.394271270293	0.117395817876
0	3863	36.511667088169	0.021760486136
0	3868	36.533427574305	0.004863882583
0	3870	36.538291456888	0.088513413106
0	3879	36.626804869994	0.017839200242
0	3884	36.644644070236	0.133804326112
0	3891	36.778448396348	0.35669840608
0	3901	37.135146802428	0.043058396389
0	3907	37.178205198817	0.012249388246
0	3912	37.190454587063	0.055167922268
0	3917	37.245622509331	0.055094401366
0	3923	37.300716910697	0.045055965204
0	3928	37.345772875901	0.04918634914
0	3933	37.394959225041	0.007486081937
0	3935	37.402445306978	0.043055147774
0	3943	37.445500454752	0.141392566943
0	3949	37.586893021695	0.001568474152
0	3951	37.588461495847	0.043411936079
0	3959	37.631873431926	0.080954397725
0	3966	37.712827829651	0.108472350586
0	3971	37.821300180237	0.043740167918
0	3976	37.865040348155	0.016840967117
0	3981	37.881881315272	0.081969637582
0	3986	37.963850952854	0.022678086846
0	3991	37.9865290397	0.06045568132
0	3998	38.04698472102	0.015310757483
0	4004	38.062295478503	0.026278124029
0	4009	38.088573602532	0.042007731564
0	4016	38.130581334096	0.451891515115
0	4025	38.582472849211	0.050594264524
0	4030	38.633067113735	0.008128564856
0	4035	38.641195678591	0.047475167084
0	4041	38.688670845675	0.034852922817
0	4046	38.723523768492	0.054300877283
0	4051	38.777824645775	0.02216367398
0	4056	38.799988319755	0.044145052307
0	4062	38.844133372062	0.00983924937
0	4067	38.853972621432	0.054414990242
0	4072	38.908387611674	0.047908594056
0	4077	38.95629620573	0.020143959126
0	4082	38.976440164856	0.087384974231
0	4088	39.063825139087	0.008485690274
0	4093	39.072310829361	0.118984707767
0	4098	39.191295537128	0.050068849982
0	4104	39.24136438711	0.020835528553
0	4109	39.262199915663	0.056036200859
0	4114	39.318236116522	0.059627789824
0	4120	39.377863906346	0.003658942559
0	4122	39.381522848905	0.031507337187
0	4130	39.413030186092	0.01399053697
0	4135	39.427020723062	0.04608153766
0	4140	39.473102260722	0.02079556925
0	4145	39.493897829972	0.01437270392
0	4150	39.508270533892	0.058052220672
0	4155	39.566322754564	0.012009590879
0	4160	39.578332345443	0.074560124782
0	4165	39.652892470225	0.195890107428
0	4170	39.848782577653	0.034344940528
0	4176	39.883127518181	0.009117510681
0	4181	39.892245028862	0.043579764752
0	4187	39.935824793614	0.006570019997
0	4189	39.942394813611	0.119907132819
0	4197	40.06230194643	0.02915171636
0	4202	40.09145366279	0.062400092857
0	4208	40.153853755647	0.003697994817
0	4210	40.157551750464	0.033606681642
0	4218	40.191158432106	0.009328401634
0	4223	40.20048683374	0.027334550603
0	4228	40.227821384343	0.109491833902
0	4235	40.337313218245	0.085535393787
0	4241	40.422848612032	0.045834777526
0	4246	40.468683389558	0.13929811294
0	4252	40.607981502498	0.008780788527
0	4257	40.616762291025	0.007840628997
0	4262	40.624602920022	0.115765486368
0	4269	40.74036840639	0.005718850143
0	4271	40.746087256533	0.060912440457
0	4279	40.80699969699	0.01200669694
0	4284	40.81900639393	0.10039000258
0	4291	40.91939639651	0.021148373296
0	4296	40.940544769806	0.008914983556
0	4301	40.949459753362	0.044554941689
0	4307	40.994014695051	0.110250562548
0	4312	41.104265257599	0.011158041357
0	4317	41.115423298956	0.009476664491
0	4322	41.124899963447	0.159196929082
0	4329	41.284096892529	0.142110844002
0	4335	41.426207736531	0.053346383231
0	4340	41.479554119762	0.041927234537
0	4345	41.521481354299	0.066639919185
0	4350	41.588121273484	0.004225282989
0	4353	41.592346556473	0.007307152237
0	4358	41.59965370871	0.02102893183
0	4366	41.62068264054	0.02525815783
0	4371	41.64594079837	0.029375983834
0	4376	41.675316782204	0.03099656786
0	4382	41.706313350064	0.060876596274
0	4392	41.767189946338	3.4701826e-05
0	4394	41.767224648164	0.05868974982
0	4403	41.825914397984	0.009270827412
0	4409	41.835185225396	0.02637599948
0	4414	41.861561224876	0.018935740347
0	4419	41.880496965223	0.011865489347
0	4425	41.89236245457	0.005170829862
0	4427	41.897533284432	0.013570436416
0	4435	41.911103720848	0.064405410604
0	4441	41.975509131452	0.087561463758
0	4446	42.06307059521	0.004621699416
0	4448	42.067692294626	0.041449160571
0	4456	42.109141455197	0.002869090811
0	4458	42.112010546008	0.074965123573
0	4466	42.186975669581	0.059404280719
0	4471	42.2463799503	0.030479722103
0	4477	42.276859672403	0.038934321444
0	4482	42.315793993847	0.06136097099
0	4488	42.377154964837	0.144079505184
0	4494	42.521234470021	0.030834761534
0	4499	42.552069231555	0.081900847748
0	4504	42.633970079303	0.001510664133
0	4506	42.635480743436	0.050516181518
0	4514	42.685996924954	0.043519153609
0	4519	42.729516078563	0.008465919466
0	4524	42.737981998029	0.026474704537
0	4529	42.764456702566	0.101758298286
0	4534	42.866215000852	0.043558845785
0	4540	42.909773846637	0.049107593573
0	4545	42.95888144021	0.012328940713
0	4550	42.971210380923	0.024088009236
0	4555	42.995298390159	0.011871086591
0	4560	43.00716947675	0.059225654882
0	4565	43.066395131632	0.11057642178
0	4570	43.176971553412	0.02064407699
0	4575	43.197615630402	0.024494576834
0	4580	43.222110207236	0.181219157111
0	4585	43.403329364347	0.035090704609
0	4590	43.438420068956	0.063474111945
0	4595	43.501894180901	2.5543423e-05
0	4597	43.501919724324	0.076691637127
0	4606	43.578611361451	0.043900743041
0	4611	43.622512104492	0.139400562408
0	4616	43.7619126669	0.010144869928
0	4621	43.772057536828	0.287646405095
0	4630	44.059703941923	0.045283282219
0	4635	44.104987224142	0.048207104213
0	4640	44.153194328355	0.023701028835
0	4645	44.17689535719	0.007151708604
0	4647	44.184047065794	0.080466645753
0	4655	44.264513711547	0.018362540508
0	4661	44.282876252055	0.086467315388
0	4667	44.369343567443	0.030471037485
0	4673	44.399814604928	0.151710559949
0	4678	44.551525164877	0.035202836768
0	4683	44.586728001645	0.044020385804
0	4689	44.630748387449	0.017265757295
0	4694	44.648014144744	0.050392018539
0	4699	44.698406163283	0.157955639522
0	4706	44.856361802805	0.010903149813
0	4711	44.867264952618	0.085859197391
0	4717	44.953124150009	0.049425642428
0	4722	45.002549792437	0.034711241919
0	4727	45.037261034356	0.000634908205
0	4729	45.037895942561	0.012558694058
0	4734	45.050454636619	0.02703899278
0	4742	45.077493629399	0.107406959898
0	4747	45.184900589297	0.140738088904
0	4754	45.325638678201	0.001502840596
0	4756	45.327141518797	0.047050323307
0	4764	45.374191842104	0.025210196724
0	4770	45.399402038828	0.052343443715
0	4775	45.451745482543	0.027225093621
0	4780	45.478970576164	0.032259841523
0	4785	45.511230417687	0.00312645724
0	4787	45.514356874927	0.095940494412
0	4795	45.610297369339	0.068083809384
0	4800	45.678381178723	0.063459537765
0	4805	45.741840716488	0.120977702116
0	4810	45.862818418604	0.027697537146
0	4815	45.89051595575	0.015708352344
0	4821	45.906224308094	0.00167215782
0	4823	45.907896465914	0.038916292475
0	4831	45.946812758389	0.054822233775
0	4836	46.001634992164	0.12453109415
0	4842	46.126166086314	0.022312391852
0	4847	46.148478478166	0.003376817572
0	4849	46.151855295738	0.044568800703
0	4857	46.196424096441	0.029539630606
0	4863	46.225963727047	0.063564323826
0	4868	46.289528050873	0.044438257746
0	4873	46.333966308619	0.016389295007
0	4878	46.350355603626	0.009225628699
0	4883	46.359581232325	0.023256192926
0	4888	46.382837425251	0.03001523632
0	4893	46.412852661571	0.066747723101
0	4898	46.479600384672	0.034558961379
0	4903	46.514159346051	0.003737607993
0	4905	46.517896954044	0.005220634312
0	4910	46.523117588356	0.013871129464
0	4915	46.53698871782	0.046328432962
0	4923	46.583317150782	0.042603685573
0	4929	46.625920836355	0.050359600585
0	4936	46.67628043694	0.113105670544
0	4942	46.789386107484	0.030901313667
0	4947	46.820287421151	0.047350442313
0	4952	46.867637863464	0.015070919155
0	4958	46.882708782619	0.029514351967
0	4964	46.912223134586	0.021673199429
0	4969	46.933896334015	0.043734578232
0	4976	46.977630912247	0.191717187067
0	4982	47.169348099314	0.032219062472
0	4988	47.201567161786	0.064569809525
0	4993	47.266136971311	0.032873074045
0	4998	47.299010045356	0.037555609851
0	5003	47.336565655207	0.033198615813
0	5008	47.36976427102	0.009070811938
0	5013	47.378835082958	0.017644882933
0	5018	47.396479965891	0.033785494254
0	5024	47.430265460145	0.066351129056
0	5029	47.496616589201	0.008655262706
0	5034	47.505271851907	0.019125866758
0	5039	47.524397718665	0.016237818447
0	5044	47.540635537112	0.000984460965
0	5046	47.541619998077	0.05406128304
0	5054	47.595681281117	0.036413661752
0	5059	47.632094942869	0.001475808055
0	5061	47.633570750924	0.016424732582
0	5069	47.649995483506	0.007806830375
0	5074	47.657802313881	0.012006625553
0	5079	47.669808939434	0.027932387544
0	5085	47.697741326978	0.037027648647
0	5090	47.734768975625	0.019441715229
0	5095	47.754210690854	0.001613389704
0	5097	47.755824080558	0.019859599861
0	5105	47.775683680419	0.01774748124
0	5111	47.793431161659	0.010295687359
0	5116	47.803726849018	0.001496518444
0	5118	47.805223367462	0.044868344058
0	5126	47.85009171152	0.031444198268
0	5132	47.881535909788	0.00787512983
0	5137	47.889411039618	0.01721081706
0	5142	47.906621856678	0.009049554523
0	5147	47.915671411201	0.030782322474
0	5152	47.946453733675	0.041029875243
0	5157	47.987483608918	0.010199411709
0	5162	47.997683020627	0.024601039575
0	5167	48.022284060202	0.026995586103
0	5172	48.049279646305	0.008903159686
0	5177	48.058182805991	0.008635763416
0	5182	48.066818569407	0.065615512831
0	5187	48.132434082238	0.070755718315
0	5192	48.203189800553	0.037415639668
0	5197	48.240605440221	0.13846620637
0	5203	48.379071646591	0.104957787047
0	5209	48.484029433638	0.02606705819
0	5214	48.510096491828	0.078889434469
0	5219	48.588985926297	0.016313996278
0	5224	48.605299922575	0.020092642627
0	5230	48.625392565202	0.023117855894
0	5235	48.648510421096	0.082971060593
0	5240	48.731481481689	0.114491732785
0	5248	48.845973214474	0.064860775536
0	5254	48.91083399001	0.033065904282
0	5259	48.943899894292	0.008230497379
0	5264	48.952130391671	0.23014731549
0	5270	49.182277707161	0.182815709534
0	5276	49.365093416695	0.040119108499
0	5282	49.405212525194	0.061437869147
0	5287	49.466650394341	0.005402098421
0	5289	49.472052492762	0.078555336936
0	5297	49.550607829698	0.220445874138
0	5304	49.771053703836	0.029321159207
0	5309	49.800374863043	0.059167530775
0	5314	49.859542393818	0.145534545673
0	5320	50.005076939491	0.101547863939
0	5326	50.10662480343	0.00041006809
0	5328	50.10703487152	0.049328255835
0	5336	50.156363127355	0.034096683131
0	5341	50.190459810486	0.106983717743
0	5346	50.297443528229	0.083967303159
0	5351	50.381410831388	0.018942044257
0	5356	50.400352875645	0.01018594156
0	5361	50.410538817205	0.172431358537
0	5367	50.582970175742	0.110544762804
0	5373	50.693514938546	0.10899714712
0	5379	50.802512085666	0.042730600131
0	5384	50.845242685797	0.014916602346
0	5389	50.860159288143	0.00940623213
0	5394	50.869565520273	0.070151111853
0	5400	50.939716632126	0.011925310343
0	5405	50.951641942469	0.079426618517
0	5410	51.031068560986	0.029797230611
0	5415	51.060865791597	0.075805750161
0	5421	51.136671541758	0.071043117526
0	5426	51.207714659284	0.029182839209
0	5431	51.236897498493	0.090538216244
0	5438	51.327435714737	0.103297158545
0	5443	51.430732873282	0.105491601057
0	5448	51.536224474339	0.046089253589
0	5453	51.582313727928	0.024454164014
0	5459	51.606767891942	0.016351222912
0	5464	51.623119114854	0.157075279389
0	5472	51.780194394243	0.191638982311
0	5478	51.971833376554	0.086109759105
0	5484	52.057943135659	0.058111781455
0	5489	52.116054917114	0.042124427203
0	5495	52.158179344317	0.028306920656
0	5501	52.186486264973	0.198701437765
0	5507	52.385187702738	0.002555713651
0	5509	52.387743416389	0.032883102137
0	5517	52.420626518526	0.039669763415
0	5522	52.460296281941	0.013520715621
0	5528	52.473816997562	0.12288609554
0	5534	52.596703093102	0.054339959463
0	5539	52.651043052565	0.050143643452
0	5545	52.701186696017	0.000764420216
0	5547	52.701951116233	0.005991101924
0	5549	52.707942218157	0.079867242685
0	5561	52.787809460842	0.048242607121
0	5566	52.836052067963	0.062929331653
0	5571	52.898981399616	0.026834543747
0	5577	52.925815943363	0.02320557282
0	5582	52.949021516183	0.005125698801
0	5584	52.954147214984	0.0029208686
0	5589	52.957068083584	0.101172870865
0	5597	53.058240954449	0.029251318685
0	5603	53.087492273134	0.011163175989
0	5608	53.098655449123	0.028630716907
0	5614	53.12728616603	0.135101707655
0	5621	53.262387873685	0.050179048425
0	5626	53.31256692211	0.015813454576
0	5631	53.328380376686	0.150382082885
0	5637	53.478762459571	0.0863846309
0	5643	53.565147090471	0.041657835072
0	5648	53.606804925543	0.061130372367
0	5653	53.66793529791	0.043110092597
0	5659	53.711045390507	0.011069744539
0	5664	53.722115135046	0.026433163685
0	5669	53.748548298731	0.014862414072
0	5674	53.763410712803	0.065382138428
0	5680	53.828792851231	0.017604460206
0	5685	53.846397311437	0.045147147223
0	5690	53.89154445866	0.039397379288
0	5695	53.930941837948	0.004361828622
0	5697	53.93530366657	0.10326044699
0	5705	54.03856411356	0.133540256933
0	5710	54.172104370493	0.026746824232
0	5715	54.198851194725	0.01239363118
0	5721	54.211244825905	0.040306901341
0	5726	54.251551727246	0.041948280141
0	5732	54.293500007387	0.023189527616
0	5737	54.316689535003	0.062956787907
0	5742	54.37964632291	0.020833009166
0	5747	54.400479332076	0.004500165676
0	5749	54.404979497752	0.029119216219
0	5757	54.434098713971	0.091409235971
0	5762	54.525507949942	0.042078416809
0	5767	54.567586366751	0.020957469785
0	5772	54.588543836536	0.030082847125
0	5777	54.618626683661	0.041655322514
0	5782	54.660282006175	0.134523445095
0	5787	54.79480545127	0.025499339183
0	5792	54.820304790453	0.080324550188
0	5798	54.900629340641	0.007220253931
0	5800	54.907849594572	0.068936224652
0	5810	54.976785819224	0.005109591936
0	5812	54.98189541116	0.199885062731
0	5820	55.181780473891	0.125147850284
0	5827	55.306928324175	0.077707861814
0	5832	55.384636185989	0.067440203335
0	5837	55.452076389324	0.010881674857
0	5842	55.462958064181	0.006835721601
0	5844	55.469793785782	0.101130541289
0	5853	55.570924327071	0.028649361669
0	5858	55.59957368874	0.010467652296
0	5863	55.610041341036	0.06497224165
0	5868	55.675013582686	0.059971996662
0	5873	55.734985579348	0.032563256407
0	5878	55.767548835755	0.046268460387
0	5884	55.813817296142	0.061367401153
0	5890	55.875184697295	0.203281215031
0	5897	56.078465912326	0.003388000422
0	5899	56.081853912748	0.010309037
0	5904	56.092162949748	0.008351692379
0	5909	56.100514642127	0.029185085659
0	5917	56.129699727786	0.020771143657
0	5922	56.150470871443	0.046827055562
0	5927	56.197297927005	0.025766874737
0	5932	56.223064801742	0.008828865138
0	5937	56.23189366688	0.004389198671
0	5939	56.236282865551	0.02547491343
0	5947	56.261757778981	0.058222128878
0	5952	56.319979907859	0.001952179923
0	5954	56.321932087782	0.146964367841
0	5962	56.468896455623	0.124646809234
0	5967	56.593543264857	0.055647313403
0	5973	56.64919057826	0.142137427403
0	5979	56.791328005663	0.057121350973
0	5984	56.848449356636	0.174834341238
0	5992	57.023283697874	0.05157848317
0	5997	57.074862181044	0.076853899258
0	6002	57.151716080302	0.021324834038
0	6008	57.17304091434	0.097697822475
0	6015	57.270738736815	0.000628474404
0	6017	57.271367211219	0.071643186345
0	6026	57.343010397564	0.08210095903
0	6031	57.425111356594	0.116680854278
0	6036	57.541792210872	0.028704879392
0	6041	57.570497090264	0.021439374007
0	6046	57.591936464271	0.125647902707
0	6051	57.717584366978	0.004029659611
0	6053	57.721614026589	0.019642990289
0	6062	57.741257016878	0.077103414514
0	6068	57.818360431392	0.074947447028
0	6073	57.89330787842	0.004499860782
0	6075	57.897807739202	0.040155796378
0	6083	57.93796353558	0.066745400998
0	6088	58.004708936578	0.076406721684
0	6095	58.081115658262	0.003549753827
0	6097	58.084665412089	0.011649593695
0	6102	58.096315005784	0.040714434387
0	6110	58.137029440171	0.005977659355
0	6112	58.143007099526	0.022736693855
0	6120	58.165743793381	0.078847345794
0	6126	58.244591139175	0.208483791156
0	6133	58.453074930331	0.033983795009
0	6139	58.48705872534	0.032506664842
0	6144	58.519565390182	0.106779721409
0	6150	58.626345111591	0.040073318033
0	6155	58.666418429624	0.068685466147
0	6160	58.735103895771	0.025446710929
0	6166	58.7605506067	0.058145055845
0	6172	58.818695662545	0.0020911873
0	6174	58.820786849845	0.016379438624
0	6182	58.837166288469	0.060488621999
0	6187	58.897654910468	0.010901454086
0	6192	58.908556364554	0.013043434666
0	6197	58.92159979922	0.13093759689
0	6203	59.05253739611	0.045712723523
0	6208	59.098250119633	0.071152706006
0	6214	59.169402825639	0.018218979233
0	6219	59.187621804872	0.03341775055
0	6224	59.221039555422	0.012037003776
0	6229	59.233076559198	0.051906255058
0	6234	59.284982814256	0.043165274075
0	6239	59.328148088331	0.020816300134
0	6245	59.348964388465	0.035510822522
0	6251	59.384475210987	0.007061617177
0	6253	59.391536828164	0.082376712345
0	6261	59.473913540509	0.001022428269
0	6263	59.474935968778	0.089381343391
0	6271	59.564317312169	0.072980187935
0	6277	59.637297500104	0.103681175965
0	6283	59.740978676069	0.045933398207
0	6288	59.786912074276	0.013997477078
0	6293	59.800909551354	0.007083417219
0	6295	59.807992968573	0.006423573382
0	6300	59.814416541955	0.010895478361
0	6308	59.825312020316	0.069163752909
0	6314	59.894475773225	0.040200026701
0	6319	59.934675799926	0.035460308049
0	6324	59.970136107975	0.08617342831
0	6332	60.056309536285	0.011579706721
0	6337	60.067889243006	0.005442968329
0	6339	60.073332211335	0.045705713309
0	6347	60.119037924644	0.062222879793
0	6353	60.181260804437	0.069591583638
0	6361	60.250852388075	0.10191032614
0	6368	60.352762714215	0.02340702802
0	6373	60.376169742235	0.065144132344
0	6378	60.441313874579	0.010427118476
0	6383	60.451740993055	0.051783317786
0	6388	60.503524310841	0.153388969554
0	6393	60.656913280395	0.048948690198
0	6398	60.705861970593	0.000483392708
0	6400	60.706345363301	0.053821777115
0	6409	60.760167140416	0.069723319579
0	6414	60.829890459995	0.139218378174
0	6421	60.969108838169	0.071364481435
0	6426	61.040473319604	0.000606933639
0	6428	61.041080253243	0.03006391502
0	6436	61.071144168263	0.020051066427
0	6442	61.09119523469	0.027472810147
0	6447	61.118668044837	0.014431634353
0	6452	61.13309967919	0.007324122856
0	6454	61.140423802046	0.045850140295
0	6462	61.186273942341	0.101491234941
0	6467	61.287765177282	0.021031700523
0	6473	61.308796877805	0.008411161884
0	6478	61.317208039689	0.050326012581
0	6483	61.36753405227	0.0720927607
0	6489	61.43962681297	0.020062478534
0	6495	61.459689291504	0.0498075905
0	6500	61.509496882004	0.001783308251
0	6502	61.511280190255	0.02009578334
0	6511	61.531375973595	0.002555981052
0	6513	61.533931954647	0.029332781948
0	6521	61.563264736595	0.058612645692
0	6526	61.621877382287	0.177804392075
0	6531	61.799681774362	0.005640901196
0	6533	61.805322675558	0.048776649369
0	6541	61.854099324927	0.124644044079
0	6546	61.978743369006	0.007450777524
0	6548	61.98619414653	0.073747004594
0	6556	62.059941151124	0.061099166492
0	6562	62.121040317616	0.026214633727
0	6567	62.147254951343	0.016538826461
0	6573	62.163793777804	0.150611189099
0	6580	62.314404966903	0.002600357247
0	6582	62.31700532415	0.120491059327
0	6590	62.437496383477	0.006508258836
0	6592	62.444004642313	0.151355603974
0	6602	62.595360246287	0.08606809523
0	6609	62.681428341517	0.030858483244
0	6614	62.712286824761	0.025236630245
0	6619	62.737523455006	0.080947388176
0	6626	62.818470843182	0.050936708804
0	6633	62.869407551986	0.001383605464
0	6635	62.87079115745	0.061744416083
0	6644	62.932535573533	0.044853224235
0	6649	62.977388797768	0.020251217371
0	6654	62.997640015139	0.159115934926
0	6661	63.156755950065	0.01365024114
0	6666	63.170406191205	0.014636522156
0	6671	63.185042713361	0.01664834071
0	6677	63.201691054071	0.008630985118
0	6682	63.210322039189	0.070039484663
0	6687	63.280361523852	0.053744522884
0	6692	63.334106046736	0.054281581981
0	6697	63.388387628717	0.018592465899
0	6702	63.406980094616	0.074621223226
0	6708	63.481601317842	0.043432846107
0	6713	63.525034163949	0.049873787309
0	6719	63.574907951258	0.032507333061
0	6725	63.607415284319	0.062263929954
0	6730	63.669679214273	0.115251920551
0	6736	63.784931134824	0.009261977047
0	6742	63.794193111871	0.061446211159
0	6747	63.85563932303	0.008515951585
0	6752	63.864155274615	0.060248746713
0	6758	63.924404021328	0.027693698277
0	6763	63.952097719605	0.069727172628
0	6768	64.021824892233	0.000140212764
0	6770	64.021965104997	0.03854391489
0	6779	64.060509019887	0.067797057388
0	6788	64.128306077275	0.037475670653
0	6794	64.165781747928	0.134684907231
0	6800	64.300466655159	0.062514659086
0	6805	64.362981314245	0.026252571054
0	6810	64.389233885299	0.021081608321
0	6815	64.41031549362	0.025288580257
0	6820	64.435604073877	0.025733069495
0	6825	64.461337143372	0.049512232981
0	6830	64.510849376353	0.082046657961
0	6835	64.592896034314	0.000645787155
0	6837	64.593541821469	0.268299345438
0	6846	64.861841166907	0.034983851027
0	6851	64.896825017934	0.030373064215
0	6856	64.927198082149	0.061922569056
0	6861	64.989120651205	0.019391918181
0	6866	65.008512569386	0.008747157274
0	6871	65.01725972666	0.000608071805
0	6873	65.017867798465	0.038068787062
0	6881	65.055936585527	0.052148980976
0	6886	65.108085566503	0.030928865443
0	6891	65.139014431946	0.222186145903
0	6897	65.361200577849	0.061474784616
0	6902	65.422675362465	0.040336150073
0	6907	65.463011512538	0.005300659825
0	6909	65.468312172363	0.004907668685
0	6914	65.473219841048	0.022291199183
0	6922	65.495511040231	0.151261966261
0	6928	65.646773006492	0.02010804045
0	6933	65.666881046942	0.014945923312
0	6938	65.681826970254	0.051086992291
0	6943	65.732913962545	0.032310689154
0	6948	65.765224651699	0.003698040984
0	6950	65.768922692683	0.030696470389
0	6958	65.799619163072	0.137828619119
0	6965	65.937447782191	0.003367827973
0	6967	65.940815610164	0.037510521636
0	6975	65.9783261318	0.026643324986
0	6981	66.004969456786	0.027159798345
0	6986	66.032129255131	0.028368632402
0	6991	66.060497887533	0.02149533713
0	6996	66.081993224663	0.11169242604
0	7002	66.193685650703	0.085675520244
0	7007	66.279361170947	0.034965958854
0	7012	66.314327129801	0.206667944494
0	7017	66.520995074295	0.258831050369
0	7024	66.779826124664	0.009675381979
0	7029	66.789501506643	0.011646572288
0	7034	66.801148078931	0.025789067275
0	7039	66.826937146206	0.085057666657
0	7044	66.911994812863	0.025414219521
0	7049	66.937409032384	0.062165715543
0	7054	66.999574747927	0.180369361882
0	7059	67.179944109809	0.04992062088
0	7064	67.229864730689	0.014787465262
0	7069	67.244652195951	0.003050564459
0	7071	67.24770276041	0.088045268292
0	7080	67.335748028702	0.01421018145
0	7085	67.349958210152	0.019955368553
0	7090	67.369913578705	0.007864533873
0	7092	67.377778112578	0.050517313483
0	7100	67.428295426061	0.044980643263
0	7105	67.473276069324	0.16086107352
0	7111	67.634137142844	0.09296778364
0	7116	67.727104926484	0.132889400855
0	7122	67.859994327339	0.020700512023
0	7128	67.880694839362	0.025085585554
0	7133	67.905780424916	0.038149713776
0	7139	67.943930138692	0.083895973668
0	7145	68.02782611236	0.003161187135
0	7147	68.030987299495	0.152295287412
0	7158	68.183282586907	0.038178741229
0	7164	68.221461328136	0.060387723867
0	7169	68.281849052003	0.073187786876
0	7175	68.355036838879	0.011338075706
0	7180	68.366374914585	0.033592050827
0	7185	68.399966965412	0.015126301748
0	7190	68.41509326716	0.01797989931
0	7196	68.43307316647	0.01900546703
0	7201	68.4520786335	0.064534265155
0	7206	68.516612898655	0.113787935198
0	7213	68.630400833853	0.005095935853
0	7215	68.635496769706	0.021909648614
0	7223	68.65740641832	0.021301082266
0	7228	68.678707500586	0.085149286268
0	7234	68.763856786854	0.04191226311
0	7239	68.805769049964	0.017416474446
0	7244	68.82318552441	0.066900634019
0	7251	68.890086158429	0.05320490723
0	7257	68.943291065659	0.001306900721
0	7259	68.94459796638	0.086046371427
0	7267	69.030644337807	0.073521977869
0	7272	69.104166315676	0.011304443917
0	7277	69.115470759593	0.07902531644
0	7285	69.194496076033	0.068682758329
0	7290	69.263178834362	0.066064939653
0	7295	69.329243774015	0.059157701831
0	7301	69.388401475846	0.060656325462
0	7307	69.449057801308	0.030432105549
0	7313	69.479489906857	0.000182238948
0	7315	69.479672145805	0.018256815582
0	7323	69.497928961387	0.090858502463
0	7328	69.58878746385	0.010111562632
0	7335	69.598899026482	0.012775288576
0	7340	69.611674315058	0.030551682411
0	7347	69.642225997469	0.015621280124
0	7353	69.657847277593	0.032103319043
0	7360	69.689950596636	0.041344588809
0	7365	69.731295185445	0.042704046976
0	7370	69.773999232421	0.00562944792
0	7372	69.779628680341	0.022162385947
0	7380	69.801791066288	0.041070090254
0	7386	69.842861156542	0.082671961571
0	7391	69.925533118113	0.006532018632
0	7393	69.932065136745	0.005959585146
0	7399	69.938024721891	0.111169733364
0	7407	70.049194455255	0.208896739349
0	7412	70.258091194604	0.081637805332
0	7417	70.339728999936	0.019721530775
0	7422	70.359450530711	0.002431822861
0	7424	70.361882353572	0.105740943529
0	7432	70.467623297101	0.028064506562
0	7437	70.495687803663	0.007867234704
0	7442	70.503555038367	0.078726910319
0	7447	70.582281948686	0.020542968605
0	7452	70.602824917291	0.006518440663
0	7454	70.609343357954	0.009215100467
0	7462	70.618558458421	0.025934294136
0	7467	70.644492752557	0.0085830283
0	7472	70.653075780857	0.021766442512
0	7477	70.674842223369	0.013587404135
0	7482	70.688429627504	0.023518481555
0	7487	70.711948109059	0.025385478925
0	7492	70.737333587984	0.028061467752
0	7497	70.765395055736	0.032033124124
0	7502	70.79742817986	0.006968109122
0	7504	70.804396288982	0.026964052394
0	7512	70.831360341376	0.013582112559
0	7517	70.844942453935	0.035120951732
0	7522	70.880063405667	0.207140182229
0	7527	71.087203587896	0.046095492749
0	7532	71.133299080645	0.001929817239
0	7534	71.135228897884	0.013399213435
0	7543	71.148628111319	0.014417720843
0	7548	71.163045832162	0.128810768477
0	7554	71.291856600639	0.074946058964
0	7559	71.366802659603	0.023035845019
0	7564	71.389838504622	0.041094489881
0	7569	71.430932994503	0.081346921632
0	7574	71.512279916135	0.035704370759
0	7579	71.547984286894	0.104812526997
0	7584	71.652796813891	0.056953868392
0	7590	71.709750682283	0.08402266344
0	7595	71.793773345723	0.006481595692
0	7597	71.800254941415	0.028177011504
0	7606	71.828431952919	0.04516241196
0	7612	71.873594364879	0.077736742461
0	7617	71.95133110734	0.066560100388
0	7622	72.017891207728	0.025845530634
0	7627	72.043736738362	0.040847688818
0	7632	72.08458442718	0.040423715018
0	7637	72.125008142198	0.051617313485
0	7644	72.176625455683	0.150561339382
0	7649	72.327186795065	0.059211583322
0	7654	72.386398378387	0.061671356913
0	7659	72.4480697353	0.15697153727
0	7668	72.60504127257	0.309887878054
0	7678	72.914929150624	0.004403879248
0	7680	72.919333029872	0.000880010328
0	7682	72.9202130402	0.119488394789
0	7693	73.039701434989	0.004115198975
0	7695	73.043816633964	0.021511304262
0	7703	73.065327938226	0.089877502747
0	7712	73.155205440973	0.032877612059
0	7717	73.188083053032	0.014211388397
0	7723	73.202294441429	0.00059223565
0	7725	73.202886677079	0.029772125795
0	7735	73.232658802874	0.000235624981
0	7737	73.232894427855	0.027697413494
0	7745	73.260591841349	0.096735635679
0	7751	73.357327477028	0.042727237388
0	7756	73.400054714416	0.01217969923
0	7762	73.412234413646	0.018321725765
0	7768	73.430556139411	0.025127018552
0	7773	73.455683157963	0.050950113761
0	7778	73.506633271724	0.084069331701
0	7783	73.590702603425	0.082790440877
0	7789	73.673493044302	0.052639182832
0	7794	73.726132227134	0.040868803913
0	7800	73.767001031047	0.039804024502
0	7807	73.806805055549	0.01382523123
0	7812	73.820630286779	0.086339393944
0	7818	73.906969680723	0.012123129117
0	7823	73.91909280984	0.035046638634
0	7828	73.954139448474	0.026514662861
0	7834	73.980654111335	0.118888923022
0	7842	74.099543034357	0.072752559444
0	7848	74.172295593801	0.020900414835
0	7853	74.193196008636	0.082233728056
0	7858	74.275429736692	0.183947468744
0	7864	74.459377205436	0.041347280286
0	7869	74.500724485722	0.086805983891
0	7874	74.587530469613	0.039216824204
0	7879	74.626747293817	0.026055626154
0	7884	74.652802919971	0.141152204011
0	7892	74.793955123982	0.030625528776
0	7897	74.824580652758	0.080775660364
0	7902	74.905356313122	0.007136016744
0	7904	74.912492329866	0.005929139645
0	7909	74.918421469511	0.031018853066
0	7917	74.949440322577	0.045516488018
0	7923	74.994956810595	0.016164098441
0	7928	75.011120909036	0.022245848202
0	7933	75.033366757238	0.004069357419
0	7935	75.037436114657	0.000352511472
0	7938	75.037788626129	0.009054429989
0	7943	75.046843056118	0.083725555112
0	7954	75.13056861123	0.00296360879
0	7956	75.13353222002	0.029457333171
0	7965	75.162989553191	0.074003074154
0	7971	75.236992627345	0.066127757658
0	7978	75.303120385003	0.027609558716
0	7983	75.330729943719	0.001145987739
0	7985	75.331875931458	0.052451940615
0	7993	75.384327872073	0.090362114151
0	7998	75.474689986224	0.016844686071
0	8004	75.491534672295	0.030359094393
0	8009	75.521893766688	0.061199709196
0	8014	75.583093475884	0.14045009527
0	8021	75.723543571154	0.01271146701
0	8026	75.736255038164	0.077904202045
0	8031	75.814159240209	0.017520567819
0	8037	75.831679808028	0.022380931
0	8043	75.854060739028	0.031264741926
0	8049	75.885325480954	0.002558864793
0	8051	75.887884345747	0.005529166414
0	8056	75.893413512161	0.10630235195
0	8065	75.999715864111	0.16227148518
0	8073	76.161987349291	0.053922899491
0	8078	76.215910248782	0.045110671315
0	8084	76.261020920097	0.061932810886
0	8090	76.322953730983	0.12443908901
0	8095	76.447392819993	0.0322600615
0	8100	76.479652881493	0.301589359855
0	8107	76.781242241348	0.039630281499
0	8112	76.820872522847	0.011474274475
0	8118	76.832346797322	0.041917420531
0	8123	76.874264217853	0.076626977118
0	8130	76.950891194971	0.115536328571
0	8136	77.066427523542	0.33993634239
0	8143	77.406363865932	0.010699664693
0	8148	77.417063530625	0.000127948196
0	8150	77.417191478821	0.023987167155
0	8158	77.441178645976	0.018659399439
0	8163	77.459838045415	0.069632886026
0	8169	77.529470931441	0.045822762141
0	8174	77.575293693582	0.079574795396
0	8181	77.654868488978	0.010884392532
0	8186	77.66575288151	0.039717788946
0	8192	77.705470670456	0.030268199373
0	8197	77.735738869829	0.047436065818
0	8202	77.783174935647	0.018015304671
0	8207	77.801190240318	0.148060688528
0	8213	77.949250928846	0.049623477326
0	8218	77.998874406172	0.048144642587
0	8224	78.047019048759	0.009656664743
0	8229	78.056675713502	0.008160050215
0	8234	78.064835763717	0.007372051619
0	8236	78.072207815336	0.076914642723
0	8244	78.149122458059	0.069425460679
0	8249	78.218547918738	0.070114613849
0	8254	78.288662532587	0.067643246581
0	8259	78.356305779168	0.025105909621
0	8266	78.381411688789	0.085787404937
0	8273	78.467199093726	0.032564963484
0	8278	78.49976405721	0.006333865235
0	8280	78.506097922445	0.026596885567
0	8288	78.532694808012	0.019288163388
0	8293	78.5519829714	0.05254354977
0	8300	78.60452652117	0.0233233787
0	8305	78.62784989987	0.071575093903
0	8310	78.699424993773	0.046055776747
0	8315	78.74548077052	0.022396436634
0	8321	78.767877207154	0.007718611946
0	8326	78.7755958191	0.089542230365
0	8333	78.865138049465	0.004147011699
0	8336	78.869285061164	0.004190403401
0	8341	78.873475464565	0.04475013804
0	8350	78.918225602605	0.012785007192
0	8355	78.931010609797	0.01449562479
0	8361	78.945506234587	0.065823269166
0	8367	79.011329503753	0.071078730188
0	8372	79.082408233941	0.029293649506
0	8378	79.111701883447	0.009571487635
0	8383	79.121273371082	0.025037625505
0	8389	79.146310996587	0.010016458125
0	8394	79.156327454712	0.082626105098
0	8401	79.23895355981	0.117572940987
0	8406	79.356526500797	0.006868500717
0	8408	79.363395001514	0.009676773973
0	8416	79.373071775487	0.197372902985
0	8423	79.570444678472	0.03595504318
0	8428	79.606399721652	0.034509681117
0	8433	79.640909402769	0.061265620026
0	8438	79.702175022795	0.107256330361
0	8443	79.809431353156	0.003234070556
0	8445	79.812665423712	0.006165822192
0	8450	79.818831245904	0.062768565402
0	8459	79.881599811306	0.010732408822
0	8465	79.892332220128	0.094516209439
0	8470	79.986848429567	0.001697340225
0	8472	79.988545769792	0.047061402213
0	8481	80.035607172005	0.050825956158
0	8487	80.086433128163	0.03535261174
0	8492	80.121785739903	0.076902234537
0	8497	80.19868797444	0.036952719924
0	8502	80.235640694364	0.014233563118
0	8507	80.249874257482	0.013400664661
0	8512	80.263274922143	0.004009014878
0	8514	80.267283937021	0.028721783953
0	8522	80.296005720974	0.025537739253
0	8527	80.321543460227	0.052895864398
0	8533	80.374439324625	0.073665773956
0	8539	80.448105098581	0.012540211376
0	8544	80.460645309957	0.098683824626
0	8550	80.559329134583	0.066243886468
0	8556	80.625573021051	0.02165025474
0	8561	80.647223275791	0.112155353811
0	8567	80.759378629602	0.053993391844
0	8572	80.813372021446	0.028618231383
0	8577	80.841990252829	0.110953274766
0	8583	80.952943527595	0.013525050585
0	8588	80.96646857818	0.015679691799
0	8593	80.982148269979	0.13787525514
0	8601	81.120023525119	0.055066676658
0	8608	81.175090201777	0.007341481768
0	8611	81.182431683545	0.049373939405
0	8620	81.23180562295	0.02903137696
0	8625	81.26083699991	0.085864067566
0	8631	81.346701067476	0.057423704326
0	8637	81.404124771802	0.021568489649
0	8642	81.425693261451	0.056769397616
0	8647	81.482462659067	0.081616477415
0	8654	81.564079136482	0.010914895537
0	8659	81.574994032019	0.029514138723
0	8664	81.604508170742	0.009356886239
0	8669	81.613865056981	0.017989723767
0	8674	81.631854780748	0.037045194924
0	8680	81.668899975672	0.06320778341
0	8686	81.732107759082	0.211372456969
0	8691	81.943480216051	0.072067496556
0	8696	82.015547712607	0.023113062613
0	8701	82.03866077522	0.004057838509
0	8703	82.042718613729	0.020311809447
0	8711	82.063030423176	0.011094519636
0	8716	82.074124942812	0.012751602251
0	8721	82.086876545063	0.055882032389
0	8726	82.142758577452	0.036918653832
0	8731	82.179677231284	0.000607991556
0	8733	82.18028522284	0.038767072074
0	8741	82.219052294914	0.005286300732
0	8743	82.224338595646	0.040462398891
0	8751	82.264800994537	0.238705510072
0	8760	82.503506504609	0.004794664146
0	8762	82.508301168755	0.003484665948
0	8764	82.511785834703	0.086673886147
0	8776	82.59845972085	0.036821340533
0	8781	82.635281061383	0.010147361984
0	8786	82.645428423367	0.006867561615
0	8788	82.652295984982	0.029877117602
0	8796	82.682173102584	0.062032992491
0	8801	82.744206095075	0.024042893835
0	8806	82.76824898891	0.006582599918
0	8808	82.774831588828	0.032325046064
0	8816	82.807156634892	0.007206666649
0	8818	82.814363301541	0.045766954699
0	8827	82.86013025624	0.079909001316
0	8832	82.940039257556	0.03006264662
0	8837	82.970101904176	0.01443179777
0	8842	82.984533701946	0.125049070908
0	8848	83.109582772854	0.022710529925
0	8853	83.132293302779	0.027939577605
0	8858	83.160232880384	0.021739243419
0	8863	83.181972123803	0.316665740147
0	8873	83.49863786395	0.011947377716
0	8878	83.510585241666	0.081788453646
0	8883	83.592373695312	0.01173675821
0	8889	83.604110453522	0.086547963333
0	8894	83.690658416855	0.0043687999
0	8896	83.695027216755	0.051495174409
0	8905	83.746522391164	0.006031702058
0	8907	83.752554093222	0.021438766855
0	8916	83.773992860077	0.011206587691
0	8921	83.785199447768	0.014893284163
0	8926	83.800092731931	0.00251289681
0	8928	83.802605628741	0.050475067719
0	8936	83.85308069646	0.010066791699
0	8941	83.863147488159	0.009180580585
0	8946	83.872328068744	0.05026172616
0	8951	83.922589794904	0.073060276795
0	8956	83.995650071699	0.03364311519
0	8961	84.029293186889	0.02148231003
0	8967	84.050775496919	0.018047833261
0	8972	84.06882333018	0.076104034067
0	8977	84.144927364247	0.052561253218
0	8982	84.197488617465	0.005205587623
0	8984	84.202694205088	0.017019538438
0	8992	84.219713743526	0.062295615632
0	8998	84.282009359158	0.014072257785
0	9003	84.296081616943	0.015612708811
0	9008	84.311694325754	0.059546957746
0	9013	84.3712412835	0.019684805889
0	9018	84.390926089389	0.09661592743
0	9025	84.487542016819	0.029626593356
0	9030	84.517168610175	0.012543469407
0	9036	84.529712079582	0.04516106797
0	9041	84.574873147552	0.078693512701
0	9046	84.653566660253	0.07168759793
0	9052	84.725254258183	0.066977260045
0	9057	84.792231518228	0.064686191287
0	9063	84.856917709515	0.021067893654
0	9068	84.877985603169	0.017478264019
0	9073	84.895463867188	0.014979804916
0	9078	84.910443672104	0.012260439293
0	9083	84.922704111397	0.05964268932
0	9089	84.982346800717	0.026577189154
0	9094	85.008923989871	0.05578083213
0	9099	85.064704822001	0.032968825013
0	9104	85.097673647014	0.04471330549
0	9111	85.142386952504	0.023102452914
0	9116	85.165489405418	0.039102669112
0	9121	85.20459207453	0.008528169378
0	9126	85.213120243908	0.02587939159
0	9132	85.238999635498	0.040048091804
0	9139	85.279047727302	0.013997416916
0	9144	85.293045144218	0.037949732225
0	9149	85.330994876443	0.152556265859
0	9154	85.483551142302	0.032072717008
0	9159	85.51562385931	0.073099172147
0	9164	85.588723031457	0.10436060443
0	9169	85.693083635887	0.015764554957
0	9174	85.708848190844	0.001793482983
0	9176	85.710641673827	5.2089895e-05
0	9178	85.710693763722	0.022295712737
0	9186	85.732989476459	0.068941983876
0	9194	85.801931460335	0.001348100175
0	9196	85.80327956051	0.034863290281
0	9205	85.838142850791	0.075759674663
0	9210	85.913902525454	0.006837995198
0	9212	85.920740520652	0.015327873963
0	9220	85.936068394615	0.023315800475
0	9225	85.95938419509	0.008688330061
0	9230	85.968072525151	0.042773105159
0	9236	86.01084563031	0.061021082326
0	9241	86.071866712636	0.027997487338
0	9246	86.099864199974	0.010327212894
0	9251	86.110191412868	0.088854167781
0	9256	86.199045580649	0.016768983636
0	9262	86.215814564285	0.059932683241
0	9267	86.275747247526	0.032489823532
0	9272	86.308237071058	0.020328168971
0	9277	86.328565240029	0.067583982002
0	9282	86.396149222031	0.004260282801
0	9284	86.400409504832	0.008950027525
0	9289	86.409359532357	0.093745435318
0	9297	86.503104967675	0.055496161493
0	9302	86.558601129168	0.15660558534
0	9309	86.715206714508	0.008206245326
0	9311	86.723412959834	0.08682344764
0	9320	86.810236407474	0.058708399399
0	9325	86.868944806873	0.002488918191
0	9327	86.871433725064	0.010674268426
0	9333	86.88210799349	0.006988559232
0	9338	86.889096552722	0.031791597001
0	9347	86.920888149723	0.08587263754
0	9352	87.006760787263	0.009165609466
0	9357	87.015926396729	0.0119357615
0	9362	87.027862158229	0.158398206136
0	9368	87.186260364365	0.01101068259
0	9373	87.197271046955	0.03028328095
0	9379	87.227554327905	0.043703558985
0	9385	87.27125788689	0.014497520348
0	9390	87.285755407238	0.025926143589
0	9395	87.311681550827	0.073162271858
0	9403	87.384843822685	0.020189663147
0	9408	87.405033485832	0.000732929427
0	9410	87.405766415259	0.039990171566
0	9418	87.445756586825	0.073598132054
0	9423	87.519354718879	0.071921048376
0	9428	87.591275767255	0.012182119902
0	9433	87.603457887157	0.153925923094
0	9439	87.757383810251	0.037201917169
0	9444	87.79458572742	0.003861368991
0	9446	87.798447096411	0.041210539975
0	9454	87.839657636386	0.035194058681
0	9459	87.874851695067	0.030626765311
0	9465	87.905478460378	0.090485173148
0	9473	87.995963633526	0.004686849119
0	9475	88.000650482645	0.195097516754
0	9486	88.195747999399	0.052896091678
0	9491	88.248644091077	0.406279518437
0	9499	88.654923609514	0.102349871159
0	9504	88.757273480673	0.114424442092
0	9510	88.871697922765	0.110976478261
0	9517	88.982674401026	0.030396938289
0	9522	89.013071339315	0.023853405562
0	9527	89.036924744877	0.065968498425
0	9532	89.102893243302	0.101340762962
0	9537	89.204234006264	0.008655086654
0	9542	89.212889092918	0.104000106107
0	9549	89.316889199025	0.099272600471
0	9555	89.416161799496	0.008942470284
0	9560	89.42510426978	0.067150365135
0	9566	89.492254634915	0.025820796841
0	9571	89.518075431756	0.018667625898
0	9576	89.536743057654	0.023412314054
0	9581	89.560155371708	0.035742065594
0	9587	89.595897437302	0.016247277096
0	9592	89.612144714398	0.000684199621
0	9594	89.612828914019	0.007786911814
0	9599	89.620615825833	0.020471005407
0	9607	89.64108683124	0.027929617623
0	9612	89.669016448863	0.172205798016
0	9617	89.841222246879	0.075583209842
0	9623	89.916805456721	0.016291039937
0	9628	89.933096496658	0.157627592522
0	9634	90.09072408918	0.11707393648
0	9639	90.20779802566	0.013781414162
0	9644	90.221579439822	0.019800593457
0	9649	90.241380033279	0.063414462374
0	9654	90.304794495653	0.013090321308
0	9659	90.317884816961	0.175330733882
0	9665	90.493215550843	0.050301196626
0	9670	90.543516747469	0.00247430254
0	9672	90.545991050009	0.012729520054
0	9677	90.558720570063	0.043999846549
0	9685	90.602720416612	0.050279246268
0	9691	90.65299966288	0.059884140972
0	9697	90.712883803852	0.003553963879
0	9699	90.716437767731	0.12464021795
0	9707	90.841077985681	0.008898035454
0	9712	90.849976021135	0.102717871415
0	9718	90.95269389255	0.078054783317
0	9723	91.030748675867	0.059532309984
0	9728	91.090280985851	0.001762969254
0	9730	91.092043955105	0.004473849539
0	9732	91.096517804644	0.017304833509
0	9741	91.113822638153	0.002943546905
0	9746	91.116766185058	0.05870289593
0	9755	91.175469080988	0.020966477265
0	9760	91.196435558253	0.00359969297
0	9762	91.200035251223	0.062874693141
0	9770	91.262909944364	0.063079809311
0	9776	91.325989753675	0.008389741423
0	9778	91.334379495098	0.17462757936
0	9790	91.509007074458	0.051465750527
0	9795	91.560472824985	0.055426521696
0	9800	91.615899346681	0.050452432914
0	9805	91.666351779595	0.003681902088
0	9807	91.670033681683	0.014203719648
0	9816	91.684237401331	0.1351998093
0	9821	91.819437210631	0.033576317359
0	9827	91.85301352799	0.01779520911
0	9833	91.8708087371	0.272964837298
0	9840	92.143773574398	0.033652329543
0	9845	92.177425903941	0.003252702135
0	9847	92.180678606076	0.022595442389
0	9855	92.203274048465	0.051388267386
0	9860	92.254662315851	0.00148255132
0	9862	92.256144867171	0.115805755379
0	9871	92.37195062255	0.127240749243
0	9877	92.499191371793	0.011780929049
0	9882	92.510972300842	0.039422021027
0	9887	92.550394321869	0.032202202025
0	9892	92.582596523894	0.114201536776
0	9897	92.69679806067	0.002696927451
0	9899	92.699494988121	0.069727975088
0	9910	92.769222963209	0.07424212664
0	9915	92.843465089849	0.00755547416
0	9917	92.851020564009	0.026557360465
0	9926	92.877577924474	0.059673821581
0	9933	92.937251746055	0.008380551468
0	9935	92.945632297523	0.036664568599
0	9943	92.982296866122	0.025401707759
0	9948	93.007698573881	0.021001002582
0	9953	93.028699576463	0.025387201338
0	9958	93.054086777801	0.023126447427
0	9963	93.077213225228	0.119615956833
0	9968	93.196829182061	0.043078086707
0	9975	93.239907268768	0.001900787399
0	9977	93.241808056167	0.045501210663
0	9986	93.28730926683	0.033835739069
0	9992	93.321145005899	0.057677173802
0	9998	93.378822179701	0.086350670736
0	10003	93.465172850437	0.212658712403
0	10011	93.67783156284	0.024228242162
0	10016	93.702059805002	0.004782040247
0	10018	93.706841845249	0.084305903074
0	10026	93.791147748323	0.132543133632
0	10033	93.923690881955	0.033941740439
0	10041	93.957632622394	0.024249687574
0	10046	93.981882309968	0.028604568625
0	10051	94.010486878593	0.030090022515
0	10056	94.040576901108	0.031375965949
0	10062	94.071952867057	0.167489813793
0	10068	94.23944268085	0.073350498847
0	10073	94.312793179697	0.018493356187
0	10078	94.331286535884	0.053500124984
0	10083	94.384786660868	0.089383797568
0	10088	94.474170458436	0.085235944448
0	10093	94.559406402884	0.012536076424
0	10098	94.571942479308	0.009716039506
0	10104	94.581658518814	0.018464848224
0	10109	94.600123367038	0.002621288724
0	10111	94.602744655762	0.037428139675
0	10120	94.640172795437	0.041392374612
0	10125	94.681565170049	0.056801726636
0	10131	94.738366896685	0.01485945966
0	10136	94.753226356345	0.078831582323
0	10141	94.832057938668	0.002003241213
0	10143	94.834061179881	0.017581276858
0	10151	94.851642456739	0.000959188621
0	10153	94.85260164536	0.076713296761
0	10162	94.929314942121	0.034074644981
0	10168	94.963389587102	0.022720351503
0	10173	94.986109938605	0.003891935036
0	10175	94.990001873641	0.00894853858
0	10180	94.998950412221	0.101352855391
0	10189	95.100303267612	0.027319459025
0	10195	95.127622726637	0.024155075983
0	10202	95.15177780262	0.019993660213
0	10207	95.171771462833	0.008753064998
0	10212	95.180524527831	0.057611045395
0	10217	95.238135573226	0.10658983011
0	10225	95.344725403336	0.100238558474
0	10231	95.44496396181	0.001903235089
0	10233	95.446867196899	0.006565390849
0	10238	95.453432587748	0.046351803415
0	10246	95.499784391163	0.010307492709
0	10251	95.510091883872	0.052097150861
0	10256	95.562189034733	0.078319191971
0	10264	95.640508226704	0.056261196076
0	10269	95.69676942278	0.029477476872
0	10275	95.726246899652	0.00609659649
0	10277	95.732343496142	0.050730175461
0	10285	95.783073671603	0.007448053953
0	10288	95.790521725556	0.007434287644
0	10293	95.7979560132	0.07039308472
0	10301	95.86834909792	0.037113173009
0	10307	95.905462270929	0.154164161685
0	10312	96.059626432614	0.0655369597
0	10318	96.125163392314	0.113095694474
0	10323	96.238259086788	0.081132003077
0	10328	96.319391089865	0.005046849904
0	10330	96.324437939769	0.022679421856
0	10339	96.347117361625	0.026555076585
0	10345	96.37367243821	0.037303347217
0	10351	96.410975785427	0.020285498913
0	10356	96.43126128434	0.037942355066
0	10361	96.469203639406	0.171108091395
0	10367	96.640311730801	0.039169531279
0	10373	96.67948126208	0.204154384512
0	10379	96.883635646592	0.001251853453
0	10381	96.884887500045	0.035124557858
0	10389	96.920012057903	0.008215737885
0	10391	96.928227795788	0.017315224296
0	10399	96.945543020084	0.051139985458
0	10404	96.996683005542	0.023788671071
0	10410	97.020471676613	0.054297686775
0	10415	97.074769363388	0.038481937574
0	10420	97.113251300962	0.00442748103
0	10422	97.117678781992	0.06510347213
0	10430	97.182782254122	0.050363525404
0	10435	97.233145779526	0.081985975281
0	10441	97.315131754807	0.061654349746
0	10446	97.376786104553	0.070317958524
0	10451	97.447104063077	0.114256266955
0	10459	97.561360330032	0.14972026299
0	10464	97.711080593022	0.004940491949
0	10466	97.716021084971	0.153786715048
0	10474	97.869807800019	0.026787095869
0	10479	97.896594895888	0.070540254938
0	10484	97.967135150826	0.228493835942
0	10489	98.195628986768	0.000908490314
0	10491	98.196537477082	0.009107949498
0	10496	98.20564542658	0.00708291539
0	10501	98.21272834197	0.021141138938
0	10509	98.233869480908	0.154618029614
0	10515	98.388487510522	0.011364960442
0	10521	98.399852470964	0.102098347291
0	10526	98.501950818255	0.095589532539
0	10531	98.597540350794	0.014889869289
0	10536	98.612430220083	0.011882664801
0	10541	98.624312884884	0.114213402466
0	10546	98.73852628735	0.138904460955
0	10552	98.877430748305	0.080622650597
0	10558	98.958053398902	0.102384730542
0	10565	99.060438129444	0.03394361505
0	10570	99.094381744494	0.023340968338
0	10575	99.117722712832	0.009558045166
0	10580	99.127280757998	0.016903634155
0	10585	99.144184392153	0.068587165081
0	10590	99.212771557234	0.017874822354
0	10595	99.230646379588	0.027939836391
0	10601	99.258586215979	0.002649595372
0	10603	99.261235811351	0.015504191277
0	10611	99.276740002628	0.033763854998
0	10616	99.310503857626	0.016734811534
0	10621	99.32723866916	0.03054983379
0	10626	99.35778850295	0.03276287697
0	10631	99.39055137992	0.008968568127
0	10636	99.399519948047	0.149261501745
0	10642	99.548781449792	0.090523697929
0	10649	99.639305147721	0.083911892368
0	10654	99.723217040089	0.033657596409
0	10659	99.756874636498	0.100903613968
0	10666	99.857778250466	0.074222567135
0	10672	99.932000817601	0.001445995029
0	10674	99.93344681263	0.018465863167
0	10682	99.951912675797	0.005091849625
0	10685	99.957004525422	0.050568823219
0	10693	100.007573348641	0.043948710405
0	10698	100.051522059046	0.066478439413
0	10704	100.118000498459	0.060948003339
0	10709	100.178948501798	0.022865157554
0	10714	100.201813659352	0.012132084498
0	10719	100.21394574385	0.019648507154
0	10724	100.233594251004	0.033847824465
0	10729	100.267442075469	0.094658028159
0	10735	100.362100103628	0.035565994067
0	10740	100.397666097695	0.034681925039
0	10745	100.432348022734	0.036946831704
0	10751	100.469294854438	0.205746821333
0	10756	100.675041675771	0.070336473188
0	10762	100.745378148959	0.003359223465
0	10764	100.748737372424	0.083170214205
0	10773	100.831907586629	0.025887704982
0	10780	100.857795291611	0.039667731429
0	10785	100.89746302304	0.006614015745
0	10787	100.904077038785	0.006710975249
0	10792	100.910788014034	0.103748517333
0	10801	101.014536531367	0.030068584994
0	10806	101.044605116361	0.018977102587
0	10811	101.063582218948	0.057808174376
0	10817	101.121390393324	0.078241046417
0	10823	101.199631439741	0.048970534251
0	10829	101.248601973992	0.040420385851
0	10834	101.289022359843	0.057339831789
0	10839	101.346362191632	0.027370145392
0	10844	101.373732337024	0.011808053616
0	10849	101.38554039064	0.023385528905
0	10854	101.408925919545	0.055803065896
0	10861	101.464728985441	0.022944426137
0	10866	101.487673411578	0.146889020332
0	10871	101.63456243191	0.010646319405
0	10876	101.645208751315	0.102402680641
0	10882	101.747611431956	0.010527861093
0	10887	101.758139293049	0.034110779145
0	10892	101.792250072194	0.065837738952
0	10898	101.858087811146	0.045382358567
0	10904	101.903470169713	0.042893709011
0	10909	101.946363878724	0.089588783346
0	10914	102.03595266207	0.009651374075
0	10919	102.045604036145	0.01207271585
0	10924	102.057676751995	0.01893519753
0	10929	102.076611949525	0.001408751779
0	10931	102.078020701304	0.009623810652
0	10937	102.087644511956	0.004036464859
0	10939	102.091680976815	0.135263487093
0	10952	102.226944463908	0.001242227804
0	10954	102.228186691712	0.00129571705
0	10956	102.229482408762	0.189541612453
0	10968	102.419024021215	0.004391341987
0	10970	102.423415363202	0.000250383772
0	10972	102.423665746974	0.001889188953
0	10974	102.425554935927	0.014338770741
0	10982	102.439893706668	0.039500630047
0	10994	102.479394336715	0.053785396031
0	11000	102.533179732746	0.017948776666
0	11005	102.551128509412	0.065187301024
0	11013	102.616315810436	0.033278997421
0	11018	102.649594807857	0.03581091714
0	11023	102.685405724997	0.038693516229
0	11029	102.724099241226	0.032250896401
0	11034	102.756350137627	0.038695086339
0	11039	102.795045223966	0.058748036976
0	11044	102.853793260942	0.046590926428
0	11049	102.90038418737	0.115163832711
0	11056	103.015548020081	0.109851925657
0	11061	103.125399945738	0.00201279305
0	11064	103.127412738788	0.040364094537
0	11072	103.167776833325	0.012540769044
0	11077	103.180317602369	0.003625375972
0	11079	103.183942978341	0.034608757653
0	11088	103.218551735994	0.049912138721
0	11093	103.268463874715	0.026855183538
0	11098	103.295319058253	0.019387188905
0	11103	103.314706247158	0.029182009593
0	11108	103.343888256751	0.032509109111
0	11113	103.376397365862	0.056417102329
0	11118	103.432814468191	0.101916813575
0	11123	103.534731281766	0.037345358038
0	11128	103.572076639804	0.15723105098
0	11133	103.729307690784	0.047048254075
0	11138	103.776355944859	0.022662901392
0	11143	103.799018846251	0.005684236711
0	11145	103.804703082962	0.022377538332
0	11153	103.827080621294	0.026782126421
0	11158	103.853862747715	0.041346441373
0	11163	103.895209189088	0.167642349365
0	11170	104.062851538453	0.095585580423
0	11175	104.158437118876	0.047601987513
0	11180	104.206039106389	0.033331680074
0	11185	104.239370786463	0.035562575669
0	11190	104.274933362132	0.002484846648
0	11192	104.27741820878	0.051674248146
0	11201	104.329092456926	0.003079450022
0	11203	104.332171906948	0.002808797551
0	11205	104.334980704499	0.023016811693
0	11216	104.357997516192	0.037042973575
0	11222	104.395040489767	0.001350319068
0	11224	104.396390808835	0.018488655517
0	11232	104.414879464352	0.09095073241
0	11239	104.505830196762	0.008230824396
0	11241	104.514061021158	0.003793294383
0	11246	104.517854315541	0.052075979497
0	11254	104.569930295038	0.053904499774
0	11259	104.623834794812	0.012113808979
0	11264	104.635948603791	0.010403869575
0	11269	104.646352473366	0.029920054138
0	11274	104.676272527504	0.013943745509
0	11279	104.690216273013	0.043090587807
0	11285	104.73330686082	0.003931187198
0	11287	104.737238048018	0.02406553429
0	11295	104.761303582308	0.027954763985
0	11300	104.789258346293	0.009339117889
0	11306	104.798597464182	0.063751345645
0	11311	104.862348809827	0.048749593677
0	11318	104.911098403504	0.020220830131
0	11323	104.931319233635	0.001520680632
0	11325	104.932839914267	0.008092811393
0	11330	104.94093272566	0.096820660567
0	11339	105.037753386227	0.172773852477
0	11346	105.210527238704	0.030957074346
0	11351	105.24148431305	0.02503027265
0	11356	105.2665145857	0.051447387863
0	11361	105.317961973563	0.062839645217
0	11366	105.38080161878	0.193376301514
0	11372	105.574177920294	0.001145891614
0	11374	105.575323811908	0.003971648694
0	11376	105.579295460602	0.003504244017
0	11378	105.582799704619	0.128078888919
0	11392	105.710878593538	0.024268142937
0	11397	105.735146736475	0.07457566725
0	11402	105.809722403725	0.007077646356
0	11404	105.816800050081	0.011129822761
0	11412	105.827929872842	0.008569284677
0	11414	105.836499157519	0.00777345818
0	11419	105.844272615699	0.003019460022
0	11424	105.847292075721	0.039465451856
0	11432	105.886757527577	0.027203588598
0	11437	105.913961116175	0.01094943853
0	11442	105.924910554705	0.050861709227
0	11447	105.975772263932	0.02026003913
0	11452	105.996032303062	0.023960100052
0	11457	106.019992403114	0.005975133583
0	11459	106.025967536697	0.007787268101
0	11464	106.033754804798	0.027056015222
0	11473	106.06081082002	0.018345371322
0	11479	106.079156191342	0.0697565152
0	11486	106.148912706542	0.036599699059
0	11491	106.185512405601	0.129238076435
0	11498	106.314750482036	0.059697392133
0	11503	106.374447874169	0.019099119137
0	11509	106.393546993306	0.17053929609
0	11518	106.564086289396	0.004085437421
0	11520	106.568171726817	0.113649199948
0	11530	106.681820926765	0.015428765112
0	11535	106.697249691877	0.068603034341
0	11541	106.765852726218	0.088916458107
0	11547	106.854769184325	0.166481750799
0	11552	107.021250935124	0.026104657637
0	11557	107.047355592761	0.08380473948
0	11565	107.131160332241	0.068722280412
0	11570	107.199882612653	0.011950695914
0	11575	107.211833308567	0.119810469517
0	11582	107.331643778084	0.034495105134
0	11588	107.366138883218	0.096304143972
0	11594	107.46244302719	0.037892870108
0	11599	107.500335897298	0.233252740222
0	11606	107.73358863752	0.086894758621
0	11613	107.820483396141	0.068695047323
0	11618	107.889178443464	0.001370523959
0	11620	107.890548967423	0.014305622624
0	11625	107.904854590047	0.042226645396
0	11633	107.947081235443	0.030187645114
0	11638	107.977268880557	0.040577977044
0	11643	108.017846857601	0.045727898361
0	11648	108.063574755962	0.086884523949
0	11653	108.150459279911	0.039618257054
0	11659	108.190077536965	0.007485104444
0	11661	108.197562641409	0.128506788136
0	11671	108.326069429545	0.096952817162
0	11676	108.423022246707	0.0325823463
0	11681	108.455604593007	0.032343739363
0	11686	108.48794833237	0.008851163608
0	11691	108.496799495978	0.044518463334
0	11697	108.541317959312	0.046273304992
0	11702	108.587591264304	0.017317427604
0	11707	108.604908691908	0.107185851914
0	11713	108.712094543822	0.145635395835
0	11720	108.857729939657	0.042628428088
0	11725	108.900358367745	0.085224832337
0	11733	108.985583200082	0.188918461597
0	11741	109.174501661679	0.055972216462
0	11746	109.230473878141	0.19187636765
0	11753	109.422350245791	0.037959775821
0	11758	109.460310021612	0.047214929004
0	11763	109.507524950616	0.10771453312
0	11768	109.615239483736	0.004336573585
0	11770	109.619576057321	0.026796107867
0	11779	109.646372165188	0.100716600301
0	11785	109.747088765489	0.021132848734
0	11790	109.768221614223	0.006688946245
0	11793	109.774910560468	0.142251256685
0	11801	109.917161817153	0.072980497153
0	11807	109.990142314306	0.014614254712
0	11813	110.004756569018	0.010159996631
0	11818	110.014916565649	0.016566080393
0	11823	110.031482646042	0.038278022577
0	11828	110.069760668619	0.072050493702
0	11833	110.141811162321	0.067490824109
0	11838	110.20930198643	0.116004861762
0	11844	110.325306848192	0.018915288534
0	11849	110.344222136726	0.089371136894
0	11854	110.43359327362	0.023500228401
0	11859	110.457093502021	0.003456401865
0	11861	110.460549903886	0.026977500645
0	11869	110.487527404531	0.034676885876
0	11874	110.522204290407	0.016691353541
0	11880	110.538895643948	0.133147875417
0	11885	110.672043519365	0.095095969516
0	11892	110.767139488881	0.091478370636
0	11897	110.858617859517	0.031657835585
0	11902	110.890275695102	0.072781783394
0	11907	110.963057478496	0.024804904022
0	11912	110.987862382518	0.028934579757
0	11917	111.016796962275	0.000563151376
0	11919	111.017360113651	0.110451526221
0	11929	111.127811639872	0.012474917954
0	11935	111.140286557826	0.024742408668
0	11940	111.165028966494	0.030261414346
0	11946	111.19529038084	0.071854886357
0	11952	111.267145267197	0.172948364986
0	11960	111.440093632183	0.033667177353
0	11966	111.473760809536	0.038633490816
0	11971	111.512394300352	0.112142047948
0	11976	111.6245363483	0.009986265319
0	11981	111.634522613619	0.001972752183
0	11983	111.636495365802	0.011397521921
0	11988	111.647892887723	0.029646950458
0	11996	111.677539838181	0.062110116959
0	12001	111.73964995514	0.012142763049
0	12007	111.751792718189	0.039536016746
0	12013	111.791328734935	0.001614089093
0	12015	111.792942824028	0.026133643193
0	12023	111.819076467221	0.021871470328
0	12028	111.840947937549	0.040194967956
0	12033	111.881142905505	0.038472916722
0	12040	111.919615822227	0.030168582774
0	12046	111.949784405001	0.06715793513
[...]
19	26961	250.935670196316	2.4860504249453
19	27224	253.421720621261	3.5794776792623
19	27574	257.001198300523	7.8138672206531
19	28500	264.815065521176	5.5887600120129
19	29116	270.403825533189	0.88956949966459
19	29223	271.293395032854	0.82362845702838
19	29332	272.117023489882	2.1412616917009
19	29547	274.258285181583	0.27662589697914
19	29571	274.534911078562	0.5273926264754
19	29602	275.062303705037	1.3104114270931
19	29713	276.37271513213	1.4064977965838
19	29843	277.779212928714	0.84229318534964
19	29939	278.621506114064	1.3907761039998
19	30083	280.012282218064	1.6237629108526
19	30286	281.636045128917	6.8705195646841
19	30981	288.506564693601	0.69557883492943
19	31069	289.20214352853	0.29673896740027
19	31100	289.49888249593	4.0349075065493
19	31533	293.533790002479	4.7631967920598
19	32019	298.296986794539	1.8686255695816
19	32207	300.165612364121	9.6961510950842
19	33337	309.861763459205	1.9005006499361
19	33571	311.762264109141	5.5831628613883
19	34058	317.345426970529	5.3854986268647
19	34650	322.730925597394	0.24042511753888
19	34695	322.971350714933	4.8042135475423
19	35185	327.775564262475	3.3820928231968
19	35505	331.157657085672	0.93909316867034
19	35588	332.096750254342	1.6305251273873
19	35740	333.727275381729	5.3357707235181
19	36291	339.063046105247	2.4632312369665
19	36553	341.526277342213	0.58009075942483
19	36594	342.106368101638	1.2239061441359
19	36726	343.330274245774	1.7340373139113
19	36913	345.064311559685	1.8165349241542
19	37118	346.880846483839	0.67120404504351
19	37198	347.552050528883	1.2330321071335
19	37349	348.785082636016	0.37727493532499
19	37391	349.162357571341	0.44167247429098
19	37456	349.604030045632	1.9411681838138
19	37643	351.545198229446	1.2698022310536
19	37780	352.8150004605	1.0333875443569
19	37913	353.848388004857	2.9713137485029
19	38248	356.81970175336	1.2741329295114
19	38413	358.093834682871	0.64564040962672
19	38511	358.739475092498	4.9210230564941
19	39089	363.660498148992	0.59838936395213
19	39144	364.258887512944	4.6551380852237
19	39703	368.914025598168	0.46158434641761
19	39746	369.375609944586	1.4642048200174
19	39865	370.839814764603	3.5396911351538
19	40242	374.379505899757	0.25746379063923
19	40259	374.636969690396	0.0019164547273579
19	40260	374.638886145123	4.51650292842
19	40715	379.155389073543	1.2727355063905
19	40837	380.428124579933	0.98728689277539
19	40984	381.415411472708	0.98587953173295
19	41108	382.401291004441	1.5133315273411
19	41245	383.914622531782	1.7219690720315
19	41422	385.636591603813	0.90442244946073
19	41485	386.541014053274	0.13894647140451
19	41508	386.679960524679	0.20160076342065
19	41520	386.8815612881	7.3609514889989
19	42352	394.242512777099	0.017148980282409
19	42358	394.259661757381	0.39208506465471
19	42410	394.651746822036	0.36454949010712
19	42452	395.016296312143	0.55144712558875
19	42502	395.567743437732	1.0987970666981
19	42613	396.66654050443	0.46948236538683
19	42646	397.136022869817	0.75904967473758
19	42698	397.895072544555	1.5550109868023
19	42824	399.450083531357	0.86927909465695
20	1577	13.911482165102	1.149151330702
20	1667	15.060633495804	0.45555026246455
20	1716	15.516183758269	2.4281993961403
20	1950	17.944383154409	1.9347464853641
20	2121	19.879129639773	0.97447151117882
20	2190	20.853601150952	0.81592020297017
20	2291	21.669521353922	2.1549163983939
20	2546	23.824437752316	0.66378241985593
20	2652	24.488220172172	8.1632020887354
20	3490	32.651422260907	4.4344591949971
20	3900	37.085881455904	3.1497966492804
20	4234	40.235678105184	0.15331357795613
20	4240	40.38899168314	0.83810974680109
20	4327	41.227101429941	0.56639555020431
20	4402	41.793496980145	4.1091658507951
20	4820	45.90266283094	2.3600124948822
20	5202	48.262675325822	1.6109207984468
20	5319	49.873596124269	2.1016537279361
20	5480	51.975249852205	5.7560541029548
20	6058	57.73130395516	0.29664476545602
20	6093	58.027948720616	2.1589768074829
20	6356	60.186925528099	2.3100247442129
20	6600	62.496950272312	0.32252931559365
20	6628	62.819479587906	0.9692226477449
20	6738	63.788702235651	10.360306698649
20	7847	74.1490089343	1.1150841168523
20	7976	75.264093051152	2.7645256307067
20	8223	78.028618681859	0.40184873415343
20	8271	78.430467416012	1.6091085129578
20	8483	80.03957592897	1.4595340384438
20	8652	81.499109967414	2.2353843386755
20	8904	83.734494306089	1.4996962213949
20	9131	85.234190527484	0.9664500470827
20	9258	86.200640574567	6.5439083793383
20	9908	92.744548953905	0.018673519504349
20	9909	92.763222473409	0.87678637246429
20	10010	93.640008845873	0.31159552785664
20	10040	93.95160437373	1.1852106945163
20	10201	95.136815068246	0.29726505821686
20	10230	95.434080126463	1.2148516647767
20	10372	96.64893179124	4.1213613591231
20	10772	100.770293150363	1.3446567737272
20	10950	102.11494992409	0.24024987021138
20	10967	102.355199794301	0.153939818309
20	10999	102.50913961261	4.820470717659
20	11581	107.329610330269	0.85219814005655
20	11658	108.181808470326	3.7034659563381
20	12035	111.885274426664	1.5033865254334
20	12196	113.388660952097	1.3140976670715
20	12319	114.702758619168	0.049320946934937
20	12323	114.752079566103	1.7671402978101
20	12545	116.519219863913	5.3694267397992
20	13185	121.888646603712	2.5859426374504
20	13512	124.474589241162	3.4623708859095
20	13975	127.936960127072	0.86699515391159
20	14063	128.803955280984	6.8571438614013
20	14845	135.661099142385	0.46877663670015
20	14923	136.129875779085	0.19410278795131
20	14935	136.323978567036	1.1174032011953
20	15042	137.441381768231	0.83840250332398
20	15126	138.279784271555	2.7754339723799
20	15426	141.055218243935	5.36166043305
20	15984	146.416878676985	1.0560693846974
20	16091	147.472948061682	0.67627261125248
20	16168	148.149220672934	0.96952785801945
20	16313	149.118748530953	0.25168188491026
20	16334	149.370430415863	1.884880874227
20	16515	151.25531129009	1.4261263609644
20	16676	152.681437651054	0.67791169981427
20	16766	153.359349350868	1.2268230335027
20	16881	154.586172384371	0.94359433001177
20	17030	155.529766714383	6.0189384537615
20	17709	161.548705168145	0.10069994646853
20	17722	161.649405114614	1.4949041806512
20	17864	163.144309295265	0.077557690958833
20	17880	163.221866986224	1.6954220952045
20	18050	164.917289081429	0.27651277643506
20	18075	165.193801857864	3.1894784414244
20	18351	168.383280299288	3.6296227549707
20	18654	172.012903054259	4.1425688228145
20	19005	176.155471877073	2.6160229867481
20	19229	178.771494863821	1.5692748167305
20	19385	180.340769680551	0.10276573973491
20	19401	180.443535420286	2.560473842305
20	19693	183.004009262591	0.7394576663225
20	19743	183.743466928914	1.7437151989024
20	19973	185.487182127816	2.1705573160537
20	20211	187.65773944387	0.12121228499096
20	20229	187.778951728861	0.47054844975999
20	20281	188.249500178621	0.87556478988741
20	20369	189.125064968508	3.8595500701275
20	20840	192.984615038636	1.0878016302247
20	20973	194.072416668861	0.74690302171678
20	21056	194.819319690578	2.6709168809959
20	21334	197.490236571574	2.8550406940449
20	21616	200.345277265619	2.3044531649893
20	21842	202.649730430608	1.7314155933048
20	22031	204.381146023913	1.7355579878487
20	22240	206.116704011762	3.9842091025558
20	22684	210.100913114318	2.5161153511648
20	22959	212.617028465483	1.2651533957614
20	23086	213.882181861244	3.7638902080757
20	23512	217.64607206932	3.7630648420823
20	23936	221.409136911402	2.5869565414167
20	24197	223.996093452819	1.2666902088969
20	24310	225.262783661716	0.61973875446388
20	24365	225.88252241618	10.469648343179
20	25510	236.352170759359	2.5340821753212
20	25744	238.88625293468	3.3202897817908
20	26113	242.206542716471	0.79582816177086
20	26160	243.002370878242	0.96209233897233
20	26250	243.964463217214	1.6814869806574
20	26477	245.645950197871	0.13424394910835
20	26489	245.780194146979	0.51018024619499
20	26543	246.290374393174	0.91885169136919
20	26660	247.209226084543	0.23390467864834
20	26682	247.443130763191	1.6647730903232
20	26797	249.107903853514	2.4463806330322
20	27044	251.554284486546	2.9221602999481
20	27318	254.476444786494	1.5163086000137
20	27466	255.992753386508	1.9340891214604
20	27688	257.926842507968	2.027449361822
20	27932	259.95429186979	2.634766665534
20	28213	262.589058535324	0.57879097159529
20	28287	263.167849506919	2.7757676253443
20	28644	265.943617132263	1.4209671730284
20	28839	267.364584305291	2.4107833130586
20	29059	269.77536761835	0.80853039475488
20	29134	270.583898013105	1.7125937610266
20	29360	272.296491774132	0.98156585727291
20	29433	273.278057631405	0.87206710456804
20	29542	274.150124735973	1.7900000536304
20	29675	275.940124789603	0.9535807605362
20	29750	276.893705550139	1.2577166715338
20	29880	278.151422221673	0.27993419396446
20	29914	278.431356415637	0.038186777063558
20	29921	278.469543192701	0.2885069731885
20	29963	278.758050165889	0.74018377425993
20	30036	279.498233940149	2.5827297831561
20	30339	282.080963723305	3.4474760059776
20	30676	285.528439729283	1.8352982023266
20	30839	287.36373793161	2.7105185620186
20	31151	290.074256493629	1.7365273939934
20	31385	291.810783887622	0.90012360472156
20	31461	292.710907492344	1.0826168054792
20	31576	293.793524297823	1.8218746328984
20	31768	295.615398930721	0.60649141039476
20	31832	296.221890341116	1.1858810438266
20	31935	297.407771384943	4.5764691002855
20	32433	301.984240485229	5.7215679065232
20	33108	307.705808391752	0.1600030544833
20	33124	307.865811446235	2.7598966928771
20	33440	310.625708139112	1.8008151022219
20	33664	312.426523241334	0.39258201091689
20	33697	312.819105252251	0.046130580459074
20	33698	312.86523583271	1.0434883373168
20	33767	313.908724170027	0.75991940993633
20	33825	314.668643579963	7.4763270325682
20	34569	322.144970612531	0.42871869269515
20	34635	322.573689305226	1.5476772480883
20	34813	324.121366553314	1.1131474562052
20	34925	325.234514009519	1.051929081477
20	35040	326.286443090996	0.37055664023517
20	35097	326.656999731231	1.1935062372028
20	35192	327.850505968434	1.5756566555025
20	35370	329.426162623936	3.2925972525025
20	35641	332.718759876439	2.0041191105434
20	35857	334.722878986982	1.0172117485063
20	35949	335.740090735488	0.29277021730223
20	35985	336.03286095279	5.4467097913305
20	36552	341.47957074412	4.2151485648123
20	36989	345.694719308932	4.6136823490031
20	37506	350.308401657935	1.6160790522608
20	37678	351.924480710196	1.3271463690237
20	37847	353.25162707922	1.6863184833201
20	38046	354.93794556254	0.7283012855058
20	38134	355.666246848046	6.1058339752638
20	38886	361.77208082331	0.22617742283749
20	38900	361.998258246147	5.9682565300611
20	39625	367.966514776208	0.7414152358307
20	39687	368.707930012039	2.7697844354338
20	39921	371.477714447473	0.38111782874397
20	39960	371.858832276217	2.2968798566348
20	40220	374.155712132852	0.53052990659467
20	40266	374.686242039447	2.129008131574
20	40460	376.815250171021	1.4334848124156
20	40624	378.248734983437	0.38308310170738
20	40666	378.631818085144	3.3627942499003
20	41046	381.994612335044	1.5359494878169
20	41236	383.530561822861	3.4014370701594
20	41521	386.93199889302	0.1308434393167
20	41542	387.062842332337	3.5414889749162
20	41953	390.604331307253	2.37597386991
20	42224	392.980305177163	2.8331430160872
20	42528	395.81344819325	3.4489034930156
20	42792	399.262351686266	0.25568826646594
20	42834	399.518039952732	0.28857708921312
20	42861	399.806617041945	0.60729011637224
21	2155	20.471089405278	1.1596877787984
21	2290	21.630777184076	0.3729222816764
21	2336	22.003699465752	2.4154288348673
21	2635	24.419128300619	0.41433440861065
21	2699	24.83346270923	6.5824812355851
21	3356	31.415943944815	1.0134404121346
21	3456	32.42938435695	5.1533542263129
21	3948	37.582738583263	7.1806710528304
21	4705	44.763409636093	1.3598219722713
21	4841	46.123231608364	5.636100752419
21	5471	51.759332360783	0.36514014247908
21	5494	52.124472503262	0.051507623597757
21	5500	52.17598012686	6.8089273868187
21	6202	58.984907513679	1.0318870728996
21	6329	60.016794586579	0.22680116379288
21	6360	60.243595750372	3.8028113237944
21	6778	64.046407074166	4.1591056185051
21	7163	68.205512692671	0.65571961296768
21	7250	68.861232305639	3.7110721130271
21	7667	72.572304418666	1.2057731309163
21	7805	73.778077549582	2.0393091077465
21	8033	75.817386657329	2.5418280269432
21	8261	78.359214684272	0.53508550555518
21	8349	78.894300189827	2.2515191343618
21	8606	81.145819324189	2.4465595162346
21	8885	83.592378840424	3.2884972061643
21	9332	86.880876046588	0.46467800119422
21	9400	87.345554047782	0.32759617859136
21	9438	87.673150226373	0.6050950603501
21	9496	88.278245286723	0.49591529738565
21	9509	88.774160584109	3.0726150172086
21	9826	91.846775601318	2.0212587651853
21	10032	93.868034366503	1.7304159389723
21	10262	95.598450305475	1.2241231364921
21	10378	96.822573441967	5.8873221382785
21	11028	102.709895580245	1.1972706747962
21	11168	103.907166255041	0.88548797512065
21	11302	104.792654230162	1.4433181575392
21	11497	106.235972387701	0.57960399409773
21	11546	106.815576381799	0.69152064187158
21	11601	107.507097023671	0.78462512492292
21	11670	108.291722148594	3.0763182507477
21	11958	111.368040399342	2.0827751099714
21	12197	113.450815509313	3.6548762411412
21	12613	117.105691750454	0.038402740836162
21	12620	117.14409449129	0.60550808097318
21	12693	117.749602572263	1.6449341993279
21	12916	119.394536771591	1.1843730535116
21	13055	120.578909825103	0.4331195475194
21	13089	121.012029372622	2.2027246452318
21	13339	123.214754017854	0.8034889795882
21	13435	124.018242997442	0.079447814440343
21	13445	124.097690811882	3.6584268239065
21	13934	127.756117635789	0.76781536194397
21	14030	128.523932997733	0.24699592550989
21	14062	128.770928923243	1.0073123281374
21	14211	129.77824125138	5.0301594137996
21	14779	134.80840066518	1.087920160555
21	14865	135.896320825735	0.054648264272383
21	14886	135.950969090007	0.34519202330179
21	14929	136.296161113309	2.2706391635359
21	15168	138.566800276845	1.2598252800511
21	15269	139.826625556896	0.93648621203405
21	15387	140.76311176893	0.306324636483
21	15427	141.069436405413	0.3699974785242
21	15454	141.439433883937	0.49583200562606
21	15512	141.935265889563	5.2384970299195
21	16050	147.173762919482	3.074920550653
21	16408	150.248683470135	6.7478764154138
21	17219	156.996559885549	0.33212957138752
21	17266	157.328689456937	1.6653448423252
21	17421	158.994034299262	2.6593378908116
21	17723	161.653372190074	0.70590299006135
21	17791	162.359275180135	0.71302942629618
21	17854	163.072304606431	1.8564595726634
21	18051	164.928764179094	2.2742517942567
21	18246	167.203015973351	0.31580324585214
21	18258	167.518819219203	1.9799239481417
21	18432	169.498743167345	1.4087309884101
21	18541	170.907474155755	1.0231592830565
21	18648	171.930633438812	3.1769056686916
21	18923	175.107539107504	2.2031155334603
21	19087	177.310654640964	0.56442842556894
21	19152	177.875083066533	3.6104774722322
21	19515	181.485560538765	0.49251166970886
21	19552	181.978072208474	2.3122811124981
21	19812	184.290353320972	1.5203207182548
21	19995	185.810674039227	1.2624074700875
21	20153	187.073081509315	1.0439491960555
21	20270	188.117030705371	1.6254327250958
21	20435	189.742463430467	1.0824944286321
21	20573	190.824957859099	2.7267022910312
21	20904	193.55166015013	3.507833577296
21	21289	197.059493727426	0.80067488542378
21	21360	197.86016861285	2.0695890411211
21	21580	199.929757653971	0.048365309260228
21	21586	199.978122963231	1.724957255333
21	21720	201.703080218564	1.5626099216167
21	21899	203.265690140181	0.41002678973106
21	21936	203.675716929912	8.2015656467337
21	22880	211.877282576646	3.4713052427404
21	23257	215.348587819386	0.16034770881528
21	23266	215.508935528201	2.8156037899897
21	23597	218.324539318191	1.4351107728753
21	23746	219.759650091066	0.39192132060779
21	23779	220.151571411674	0.54777508522336
21	23863	220.699346496897	3.4360139284974
21	24199	224.135360425394	1.2151454253615
21	24317	225.350505850755	1.3947392345467
21	24456	226.745245085302	0.51967824378823
21	24505	227.26492332909	0.35174571551111
21	24525	227.616669044601	0.35643944940881
21	24586	227.97310849401	1.9187828753751
21	24820	229.891891369385	0.51773809397143
21	24878	230.409629463356	0.47924528307399
21	24927	230.88887474643	1.8943528110163
21	25102	232.783227557446	2.533984791223
21	25425	235.317212348669	0.55064393049406
21	25468	235.867856279163	0.48205102345816
21	25509	236.349907302621	7.3819717168217
21	26227	243.731879019443	0.022526382336865
21	26228	243.75440540178	2.707305497316
21	26566	246.461710899096	2.405143375636
21	26781	248.866854274732	2.47853735678
21	27011	251.345391631512	1.1629802484093
21	27140	252.508371879921	0.62958377927336
21	27186	253.137955659194	2.241119127156
21	27399	255.37907478635	2.8682402211804
21	27709	258.24731500753	0.5571639345645
21	27755	258.804478942095	2.9299148150043
21	28128	261.734393757099	0.44664275791169
21	28181	262.181036515011	0.47390631109132
21	28220	262.654942826102	3.5000377144373
21	28657	266.154980540539	2.0764129611901
21	28913	268.231393501729	0.86730405292641
21	29015	269.098697554655	0.4427118728527
21	29048	269.541409427508	6.0265078203662
21	29646	275.567917247874	4.0965995447012
21	30054	279.664516792575	1.4849890565331
21	30230	281.149505849108	2.3164170478456
21	30482	283.465922896954	0.25391100168096
21	30500	283.719833898635	3.339754271938
21	30805	287.059588170573	0.1985633196568
21	30825	287.25815149023	0.9126544240911
21	30933	288.170805914321	0.71076256536209
21	31019	288.881568479683	2.5525352244025
21	31341	291.434103704085	0.82261537100056
21	31416	292.256719075086	0.33888122216559
21	31440	292.595600297252	1.7477639863772
21	31641	294.343364283629	0.03116504490208
21	31642	294.374529328531	0.85558943561262
21	31708	295.230118764144	0.75721238082883
21	31797	295.987331144973	5.3991972892101
21	32360	301.386528434183	3.426965390656
21	32797	304.813493824839	1.4506231971127
21	32955	306.264117021952	1.7672551523994
21	33130	308.031372174351	0.83996977766628
21	33211	308.871341952017	0.5036507099756
21	33276	309.374992661993	2.3738490270063
21	33570	311.748841688999	0.7830202555188
21	33675	312.531861944518	2.2167175414717
21	33836	314.74857948599	0.90005388624292
21	33943	315.648633372233	0.82410549020929
21	34010	316.472738862442	5.7174807856478
21	34570	322.19021964809	1.0183448219907
21	34736	323.208564470081	3.5747482459476
21	35128	326.783312716029	2.5449091036853
21	35361	329.328221819714	0.098044079717986
21	35371	329.426265899432	0.72940080019601
21	35420	330.155666699628	0.82952940712019
21	35484	330.985196106748	6.0334986764239
21	36104	337.018694783172	0.90262329904478
21	36196	337.921318082217	2.3042861407348
21	36410	340.225604222952	0.73556542758574
21	36504	340.961169650538	0.69786087039575
21	36575	341.659030520934	0.28683611091157
21	36583	341.945866631846	2.3283673969586
21	36823	344.274234028805	0.56226636688583
21	36886	344.836500395691	0.048240702821265
21	36889	344.884741098512	2.3443480749235
21	37153	347.229089173435	0.18777411182342
21	37177	347.416863285258	0.54041618427123
21	37251	347.957279469529	4.5129270563669
21	37742	352.470206525896	0.90102218498788
21	37868	353.371228710884	1.9051528691766
21	38084	355.276381580061	3.7551130895795
21	38550	359.03149466964	2.782404541408
21	38887	361.813899211048	4.6371380128067
21	39440	366.451037223855	1.5578583813412
21	39626	368.008895605196	2.0036579514361
21	39802	370.012553556632	1.7181482777601
21	39957	371.730701834392	1.2034102529143
21	40069	372.934112087306	0.33223739329975
21	40111	373.266349480606	1.4612978767124
21	40267	374.727647357318	4.5630331234891
21	40725	379.290680480807	0.7657780456728
21	40785	380.05645852648	1.9660615983638
21	41050	382.022520124844	1.6923994522527
21	41237	383.714919577097	0.48874873677901
21	41272	384.203668313876	0.44863786226255
21	41314	384.652306176139	1.5832344113392
21	41456	386.235540587478	0.015044921267417
21	41459	386.250585508745	2.3235900748269
21	41700	388.574175583572	2.0343508914389
21	41954	390.608526475011	1.8685173868149
21	42150	392.477043861826	4.4531520939677
21	42644	396.930195955794	4.4412899427431

