file 9675248 1614185313                                         
version 2
run Nonmonitoring-exponential-45-20210224-17:48:32-26574
attr configname Nonmonitoring-exponential
attr datetime 20210224-17:48:32
attr experiment Nonmonitoring-exponential
attr inifile aerocom.ini
attr iterationvars $0=9
attr iterationvarsf 9-
attr measurement $0=9
attr network Aerocom
attr processid 26574
attr repetition 45
attr replication #45
attr resultdir results
attr runnumber 45
attr seedset 45
param **.t 2s
param **.k 9ms
param **.X 0.05s
param **.m 1s
param **.tDistribution "\"exponential\""
param **.operationMode 1
param **.s "70 byte"
param **.dimPoolMax 10000
param **.dimPoolMin 8000
param **.nDL 16
param **.nA 1
param **.DLMaxCapacity 0
param **.trasmitting false

vector 0 Aerocom.aircraft[0].linkSelector responseTime:vector ETV
attr "" ""
attr source computeResponseTime
vector 1 Aerocom.aircraft[0].linkSelector waitingTime:vector ETV
attr "" ""
attr source computeWaitingTime
vector 2 Aerocom.aircraft[0].linkSelector queueLength:vector ETV
attr "" ""
attr source computeQueueLength
vector 3 Aerocom.aircraft[0].dataLink[9] actualCapacity:vector ETV
attr "" ""
attr source computeActualCapacity
vector 4 Aerocom.aircraft[0].linkSelector serviceTime:vector ETV
attr "" ""
attr source computeServiceTime
vector 5 Aerocom.aircraft[0].dataLink[5] tDistribution:vector ETV
attr "" ""
attr source computeTDistribution
vector 6 Aerocom.aircraft[0].dataLink[6] tDistribution:vector ETV
attr "" ""
attr source computeTDistribution
vector 7 Aerocom.aircraft[0].dataLink[4] tDistribution:vector ETV
attr "" ""
attr source computeTDistribution
vector 8 Aerocom.aircraft[0].packetGenerator arrivalTime:vector ETV
attr "" ""
attr source computeArrivalTime
vector 9 Aerocom.aircraft[0].dataLink[2] tDistribution:vector ETV
attr "" ""
attr source computeTDistribution
vector 10 Aerocom.aircraft[0].dataLink[1] tDistribution:vector ETV
attr "" ""
attr source computeTDistribution
vector 11 Aerocom.aircraft[0].dataLink[9] tDistribution:vector ETV
attr "" ""
attr source computeTDistribution
vector 12 Aerocom.aircraft[0].dataLink[13] tDistribution:vector ETV
attr "" ""
attr source computeTDistribution
vector 13 Aerocom.aircraft[0].dataLink[8] tDistribution:vector ETV
attr "" ""
attr source computeTDistribution
vector 14 Aerocom.aircraft[0].dataLink[14] tDistribution:vector ETV
attr "" ""
attr source computeTDistribution
vector 15 Aerocom.aircraft[0].dataLink[10] tDistribution:vector ETV
attr "" ""
attr source computeTDistribution
vector 16 Aerocom.aircraft[0].dataLink[0] tDistribution:vector ETV
attr "" ""
attr source computeTDistribution
vector 17 Aerocom.aircraft[0].dataLink[7] tDistribution:vector ETV
attr "" ""
attr source computeTDistribution
vector 18 Aerocom.aircraft[0].dataLink[15] tDistribution:vector ETV
attr "" ""
attr source computeTDistribution
vector 19 Aerocom.aircraft[0].dataLink[3] tDistribution:vector ETV
attr "" ""
attr source computeTDistribution
vector 20 Aerocom.aircraft[0].dataLink[12] tDistribution:vector ETV
attr "" ""
attr source computeTDistribution
vector 21 Aerocom.aircraft[0].dataLink[11] tDistribution:vector ETV
attr "" ""
attr source computeTDistribution
8	3127 1306025 5350 171490 10.020154397539 305.306769326511 32768 1.856e-07 0.116541875436 295.29063059039 5.3633600884558
0	1309152 1306522 5338 171509 10.000503409403 305.331344108913 32768 0.007010515774 0.342791375463 1296.2500143547 105.00614512766
1	2615674 1252085 5338 171509 10.000503409403 305.331344108913 32768 0 0.334323974955 1039.4396078322 86.400747401444
2	3867759 887350 5338 171509 10.000503409403 305.331344108913 32768 0 39 116266 1208758
3	4755109 982526 5338 171509 10.000503409403 305.331344108913 32768 8003 9985 293460517 2635322752445
4	5737635 1436928 5338 171509 10.000503409403 305.331344108913 32768 0.0070105157736605 0.0087467199800075 256.82251798859 2.0183574692925
0	7174563 431038 171514 225085 305.338790125294 399.993994309935 10570 0.007011920264 0.225748118313 395.87811800879 25.367344462862
1	7605601 414147 171514 225085 305.338790125294 399.993994309935 10570 0 0.217517665638 313.04268648908 19.76430961083
2	8019748 295625 171514 225085 305.338790125294 399.993994309935 10570 0 26 35007 278827
3	8315373 326480 171514 225085 305.338790125294 399.993994309935 10570 8004 9991 94734026 851697480128
4	8641853 473108 171514 225085 305.338790125294 399.993994309935 10570 0.0070063056751076 0.0087456271864068 82.814279386304 0.65089320666161
5	9114961 7130 5341 224194 10.00060824907 398.405776301988 172 0.010955134436052 16.14811677184 392.28249311422 1770.3537168647
6	9122091 8625 5342 224865 10.002353834946 399.590524076893 207 0.020492236653366 11.216420969475 390.37777736367 1358.0445238269
7	9130716 8170 5343 220129 10.005784203854 391.038308529348 197 0.00010623925339245 13.397890682395 394.43041500789 1534.1541171512
8	9138886 430827 171495 225083 305.310784987934 399.989814839508 10569 4.590902e-06 0.081386280015 94.696727512841 1.6948341883132
9	9569713 7830 5435 224601 10.157763025261 399.156379502595 188 0.0084099477252497 9.6828859906996 392.15759924394 1563.2324023263
10	9577543 8490 5455 223762 10.234807286895 397.751936038788 200 0.011102480884181 11.097933895057 390.12501427537 1407.4549349267
11	9586033 9708 5551 223254 10.36944499676 396.97160265921 228 3.112969931981e-05 13.109305997467 399.71146365992 1480.1654877383
12	9595741 7200 6091 222473 11.262084419017 395.285872576373 169 0.020542944566777 13.143162624053 389.22944328649 1918.2639991623
13	9602941 7523 6110 222195 11.29725521581 394.728063638327 177 0.012300311611636 12.044721163953 391.14009976717 1819.3033693165
14	9610464 8194 6124 223281 11.319073047641 397.003452809118 193 5.6857323999081e-06 7.7710859902321 389.07308703366 1355.9371087528
15	9618658 9246 6176 225052 11.457485836964 399.946735883001 217 0.017011965899627 8.3718298892023 388.94675065961 1266.7022442551
16	9627904 8037 6425 224102 11.840142356618 398.279042881425 189 0.0025792349939203 9.8292954758524 388.23751507589 1543.2910504901
17	9635941 8294 6732 224801 12.433983592898 399.47625346908 195 0.0091748987808211 14.192621368786 388.06251537711 1567.2246483593
18	9644235 7485 6868 220980 12.641240922591 392.530822045471 176 0.0065011868783595 12.584685122212 388.23532108654 1654.7120393953
19	9651720 8835 7049 223139 12.930753701993 396.777939041265 208 0.0034037406390098 11.712394906227 389.08996512411 1471.5065758767
20	9660555 7381 7640 223199 13.943678013973 396.882767841441 174 0.0039215553213416 15.311980447493 386.51038324249 1745.6236426751
21	9667936 7311 8214 223617 14.897046058161 397.520401383541 172 0.01546370219765 10.520491226597 385.41261356135 1606.3113933911

