version 2
run Nonmonitoring-exponential-587-20210224-17:49:34-27103
attr configname Nonmonitoring-exponential
attr datetime 20210224-17:49:34
attr experiment Nonmonitoring-exponential
attr inifile aerocom.ini
attr iterationvars $0=50
attr iterationvarsf 50-
attr measurement $0=50
attr network Aerocom
attr processid 27103
attr repetition 87
attr replication #87
attr resultdir results
attr runnumber 587
attr seedset 87
param **.t 2s
param **.k 50ms
param **.X 0.05s
param **.m 1s
param **.tDistribution "\"exponential\""
param **.operationMode 1
param **.s "70 byte"
param **.dimPoolMax 10000
param **.dimPoolMin 8000
param **.nDL 16
param **.nA 1
param **.DLMaxCapacity 0
param **.trasmitting false

vector 0 Aerocom.aircraft[0].dataLink[11] tDistribution:vector ETV
attr "" ""
attr source computeTDistribution
vector 1 Aerocom.aircraft[0].dataLink[5] tDistribution:vector ETV
attr "" ""
attr source computeTDistribution
vector 2 Aerocom.aircraft[0].dataLink[0] tDistribution:vector ETV
attr "" ""
attr source computeTDistribution
vector 3 Aerocom.aircraft[0].packetGenerator arrivalTime:vector ETV
attr "" ""
attr source computeArrivalTime
vector 4 Aerocom.aircraft[0].linkSelector waitingTime:vector ETV
attr "" ""
attr source computeWaitingTime
vector 5 Aerocom.aircraft[0].linkSelector queueLength:vector ETV
attr "" ""
attr source computeQueueLength
vector 6 Aerocom.aircraft[0].dataLink[13] actualCapacity:vector ETV
attr "" ""
attr source computeActualCapacity
vector 7 Aerocom.aircraft[0].linkSelector serviceTime:vector ETV
attr "" ""
attr source computeServiceTime
vector 8 Aerocom.aircraft[0].linkSelector responseTime:vector ETV
attr "" ""
attr source computeResponseTime
vector 9 Aerocom.aircraft[0].dataLink[9] tDistribution:vector ETV
attr "" ""
attr source computeTDistribution
vector 10 Aerocom.aircraft[0].dataLink[8] tDistribution:vector ETV
attr "" ""
attr source computeTDistribution
vector 11 Aerocom.aircraft[0].dataLink[12] tDistribution:vector ETV
attr "" ""
attr source computeTDistribution
vector 12 Aerocom.aircraft[0].dataLink[2] tDistribution:vector ETV
attr "" ""
attr source computeTDistribution
vector 13 Aerocom.aircraft[0].dataLink[14] tDistribution:vector ETV
attr "" ""
attr source computeTDistribution
vector 14 Aerocom.aircraft[0].dataLink[4] tDistribution:vector ETV
attr "" ""
attr source computeTDistribution
vector 15 Aerocom.aircraft[0].dataLink[3] tDistribution:vector ETV
attr "" ""
attr source computeTDistribution
vector 16 Aerocom.aircraft[0].dataLink[1] tDistribution:vector ETV
attr "" ""
attr source computeTDistribution
vector 17 Aerocom.aircraft[0].dataLink[15] tDistribution:vector ETV
attr "" ""
attr source computeTDistribution
vector 18 Aerocom.aircraft[0].dataLink[13] tDistribution:vector ETV
attr "" ""
attr source computeTDistribution
vector 19 Aerocom.aircraft[0].dataLink[10] tDistribution:vector ETV
attr "" ""
attr source computeTDistribution
vector 20 Aerocom.aircraft[0].dataLink[6] tDistribution:vector ETV
attr "" ""
attr source computeTDistribution
vector 21 Aerocom.aircraft[0].dataLink[7] tDistribution:vector ETV
attr "" ""
attr source computeTDistribution
0	1154	10.049743711755	3.0692948845181
0	1448	13.119038596273	9.0353214422444
0	2382	22.154360038517	0.38731830388269
0	2406	22.5416783424	1.1922850321389
0	2517	23.733963374539	1.0951494386652
0	2629	24.829112813204	1.4642911048554
0	2770	26.293403918059	5.5855738034866
0	3377	31.878977721546	1.8005092485047
0	3609	33.679486970051	2.5281909393651
0	3859	36.207677909416	0.64283571564935
0	3913	36.850513625065	2.4380828284592
0	4208	39.288596453524	3.559637808665
0	4614	42.848234262189	2.9392187777325
0	4913	45.787453039922	0.38381725563663
0	4939	46.171270295559	1.1014059901913
0	5049	47.27267628575	2.4308572662686
0	5318	49.703533552019	1.2588240594252
0	5435	50.962357611444	1.6909310108218
0	5634	52.653288622266	4.6975188004155
0	6187	57.350807422681	3.6742819451386
0	6544	61.02508936782	0.14451352510514
0	6556	61.169602892925	0.66284100113628
0	6596	61.832443894061	2.0602850126179
0	6893	63.892728906679	2.7418845430554
0	7191	66.634613449734	1.4711111535908
0	7388	68.105724603325	2.5325119626431
0	7629	70.638236565968	1.235187507847
0	7806	71.873424073815	3.053124008447
0	8214	74.926548082262	0.32534853102757
0	8246	75.25189661329	1.1868934049298
0	8375	76.43879001822	2.6945189137636
0	8730	79.133308931984	1.4141311641054
0	8904	80.547440096089	0.35208378082533
0	8947	80.899523876914	3.5010475047483
0	9258	84.400571381662	0.62416671345337
0	9313	85.024738095115	1.0264746111568
0	9417	86.051212706272	0.74143394344072
0	9489	86.792646649713	0.48114402877679
0	9543	87.27379067849	0.050923051652319
0	9553	87.324713730142	1.3263445728467
0	9675	88.651058302989	1.3928043346906
0	9812	90.04386263768	0.54785817164114
0	9891	90.591720809321	0.026032504289994
0	9897	90.617753313611	1.0955525907864
0	10039	91.713305904397	3.4353609433423
0	10411	95.148666847739	5.9976753529081
0	11055	101.146342200647	2.7865467694251
0	11348	103.932888970072	0.93376698079414
0	11412	104.866655950866	2.6428917845925
0	11680	107.509547735458	0.41679071138661
0	11718	107.926338446845	1.7211198576313
0	11886	109.647458304476	5.9646649551443
0	12654	115.61212325962	2.6517404248937
0	12946	118.263863684514	0.7931006072738
0	13033	119.056964291788	1.3763588029288
0	13205	120.433323094717	2.6455363110793
0	13476	123.078859405796	0.40234572334111
0	13520	123.481205129137	0.20863192211163
0	13538	123.689837051249	1.9828847109617
0	13702	125.672721762211	4.2136536575588
0	14115	129.88637541977	1.1856758060388
0	14199	131.072051225809	1.8193430676369
0	14424	132.891394293446	3.1399978407729
0	14703	136.031392134219	4.7773793063841
0	15219	140.808771440603	1.2358894772994
0	15328	142.044660917902	0.55178684448513
0	15378	142.596447762387	5.4292026083842
0	16022	148.025650370771	0.32631837204401
0	16067	148.351968742815	2.3788383272649
0	16285	150.73080707008	0.93571186493759
0	16378	151.666518935018	1.3617953906104
0	16516	153.028314325628	1.0299504318775
0	16596	154.058264757506	2.8438887025454
0	16910	156.902153460051	0.45964610462423
0	16960	157.361799564675	0.42983849267107
0	17004	157.791638057346	0.45229026621854
0	17048	158.243928323565	0.54221586073958
0	17108	158.786144184305	2.7372497293778
0	17384	161.523393913683	3.1166237003649
0	17718	164.640017614048	3.8812293028261
0	18085	168.521246916874	6.3126726974878
0	18736	174.833919614362	3.6581403002339
0	19168	178.492059914596	0.98425272035678
0	19276	179.476312634953	0.26523092423249
0	19284	179.741543559185	0.049322196473949
0	19290	179.790865755659	0.19982136605002
0	19301	179.990687121709	0.5063063548006
0	19351	180.49699347651	1.107613240229
0	19479	181.604606716739	2.5190942678212
0	19698	184.12370098456	5.6958170186629
0	20398	189.819518003223	0.23046007825149
0	20425	190.049978081474	2.3085656297075
0	20632	192.358543711182	2.6653975872022
0	20946	195.023941298384	0.30134018203763
0	20973	195.325281480422	5.8419941789397
0	21525	201.167275659362	1.5723961721914
0	21726	202.739671831553	1.2240104067946
0	21858	203.963682238348	1.7791783179048
0	21997	205.742860556253	1.791600220669
0	22162	207.534460776922	1.5534247138938
0	22361	209.087885490816	1.1203650306474
0	22466	210.208250521463	4.5737892910718
0	23000	214.782039812535	3.5295064992434
0	23445	218.311546311778	0.034132184427941
0	23456	218.345678496206	0.37279755159898
0	23506	218.718476047805	0.08706017390569
0	23513	218.805536221711	0.070724298694945
0	23521	218.876260520406	1.7420742318888
0	23764	220.618334752295	1.6000085665031
0	23936	222.218343318798	0.1009321611768
0	23950	222.319275479975	2.2126126543745
0	24199	224.531888134349	0.97370344081401
0	24333	225.505591575163	0.43130842745971
0	24378	225.936900002623	0.44792007943399
0	24437	226.384820082057	0.18052997178751
0	24494	226.565350053845	1.508821371167
0	24646	228.074171425012	0.30905808791269
0	24672	228.383229512925	0.47589806487323
0	24732	228.859127577798	3.7157390357514
0	25123	232.574866613549	1.0343028213485
0	25252	233.609169434897	0.88682043577874
0	25378	234.495989870676	0.73350114133954
0	25445	235.229491012016	2.6879058591094
0	25746	237.917396871125	0.95939208341644
0	25835	238.876788954541	0.35069469907745
0	25882	239.227483653618	1.0506211578343
0	26012	240.278104811452	0.97511427886695
0	26140	241.253219090319	2.2522674464925
0	26429	243.505486536811	4.1364777006782
0	26837	247.641964237489	1.8757395994526
0	27149	249.517703836942	1.6235575381799
0	27314	251.141261375122	0.25001000580055
0	27341	251.391271380923	2.4000380160396
0	27591	253.791309396963	8.9958784710651
0	28571	262.787187868028	1.3518372481437
0	28687	264.139025116172	0.85310850970512
0	28772	264.992133625877	1.3331812990156
0	28901	266.325314924893	0.43438815107653
0	28933	266.75970307597	8.0538695406465
0	29758	274.813572616617	0.13473683443182
0	29767	274.948309451049	3.3628889587892
0	30077	278.311198409838	2.1484502401323
0	30255	280.45964864997	4.8601450339496
0	30776	285.31979368392	5.1649047761318
0	31339	290.484698460052	3.2024236309794
0	31655	293.687122091031	6.4814885436198
0	32334	300.168610634651	0.37643517021951
0	32390	300.545045804871	6.0748438305492
0	33013	306.61988963542	1.6670153052558
0	33182	308.286904940676	1.1520469067816
0	33307	309.438951847458	1.1812101220684
0	33425	310.620161969526	2.0535071451236
0	33634	312.67366911465	1.9527299296145
0	33896	314.626399044264	0.5989279445292
0	33956	315.225326988793	4.2417371896595
0	34389	319.467064178452	0.28203649858313
0	34410	319.749100677035	3.653410524166
0	34802	323.402511201201	1.4768759965644
0	34945	324.879387197765	7.6150388214502
0	35749	332.494426019215	2.9474048921503
0	36060	335.441830911365	3.2719328993921
0	36367	338.713763810757	4.3124285115182
0	36800	343.026192322275	0.64953460471637
0	36864	343.675726926991	0.35109743833805
0	36901	344.026824365329	5.0506448553795
0	37414	349.077469220709	7.0142666021017
0	38171	356.091735822811	0.79189080548535
0	38258	356.883626628296	5.4333340251451
0	38832	362.316960653441	3.0022296502879
0	39127	365.319190303729	0.24434814074099
0	39152	365.56353844447	2.9980157484045
0	39438	368.561554192874	0.89794722710719
0	39542	369.459501419981	5.0296836930283
0	40035	374.489185113009	8.2855018322172
0	40888	382.774686945226	5.0131677735575
0	41382	387.787854718783	0.83234196666347
0	41470	388.620196685446	1.1890650716878
0	41588	389.809261757134	8.5266916394996
0	42463	398.335953396634	3.50046061506
1	1155	10.16607244042	1.7898100852646
1	1323	11.955882525685	0.51428014372992
1	1383	12.470162669415	0.075605959116608
1	1394	12.545768628532	1.0968802647038
1	1491	13.642648893236	0.16754194770551
1	1502	13.810190840942	0.97903243132284
1	1602	14.789223272265	0.70766200683181
1	1664	15.496885279097	5.5057020323021
1	2219	21.002587311399	1.5603217188859
1	2412	22.562909030285	2.1704636215417
1	2622	24.733372651827	0.19452992290912
1	2647	24.927902574736	0.25366459630917
1	2678	25.181567171045	1.4589623104542
1	2804	26.640529481499	0.73956271355547
1	2945	27.380092195054	2.2047103096331
1	3159	29.584802504687	1.093443420122
1	3272	30.678245924809	1.2980424856836
1	3386	31.976288410493	2.5176499772462
1	3693	34.493938387739	3.2744061974322
1	4026	37.768344585171	3.9192980637312
1	4496	41.687642648902	2.2572396867501
1	4720	43.944882335652	4.9971912622581
1	5226	48.94207359791	5.4699683425304
1	5889	54.41204194044	0.49656218113134
1	5930	54.908604121571	7.6013883315795
1	6677	62.50999245315	0.92269498910191
1	6841	63.432687442252	0.48178988624479
1	6896	63.914477328497	0.14922834826711
1	6910	64.063705676764	0.30852075690512
1	6938	64.372226433669	2.1023941397067
1	7174	66.474620573376	0.23965518729594
1	7198	66.714275760672	3.0800035633848
1	7558	69.794279324057	1.9412025659002
1	7782	71.735481889957	3.8237618621682
1	8272	75.559243752125	0.89295219091129
1	8376	76.452195943036	0.075982144196747
1	8387	76.528178087233	1.6506753439798
1	8595	78.178853431213	0.87460040167673
1	8726	79.05345383289	1.2943667627398
1	8891	80.34782059563	0.28960531597129
1	8915	80.637425911601	3.6909583720688
1	9253	84.32838428367	2.0586386264984
1	9437	86.387022910168	4.1662722810515
1	9890	90.55329519122	0.98246568921444
1	10000	91.535760880434	2.620989704932
1	10339	94.156750585366	1.8844145606983
1	10520	96.041165146064	2.4379164906904
1	10786	98.479081636754	7.2877280354166
1	11519	105.766809672171	1.5536670292824
1	11663	107.320476701453	4.0943323044717
1	12074	111.414809005925	13.802650980766
1	13675	125.217459986691	2.6014664274426
1	13917	127.818926414134	6.127479589692
1	14538	133.946406003826	2.3857423893778
1	14737	136.332148393204	2.8941472857434
1	15010	139.226295678947	0.70613313808774
1	15089	139.932428817035	0.42307170716275
1	15168	140.355500524198	0.9940089043699
1	15260	141.349509428568	1.4992640464453
1	15401	142.848773475013	0.61566307137716
1	15507	143.46443654639	8.9670340745314
1	16429	152.431470620921	2.3010260964463
1	16678	154.732496717367	3.0011093699476
1	16998	157.733606087315	11.764230794346
1	18208	169.497836881661	0.31989249814653
1	18243	169.817729379808	0.76349639450612
1	18329	170.581225774314	2.4856117031297
1	18537	173.066837477444	2.7305018781355
1	18827	175.79733935558	2.1070856238165
1	19097	177.904424979396	0.75202071184113
1	19193	178.656445691237	8.6514057900538
1	20134	187.307851481291	9.870072119501
1	21151	197.177923600792	0.37329398469725
1	21181	197.551217585489	5.4270315002955
1	21753	202.978249085785	2.8911951698971
1	22005	205.869444255682	3.3281395701484
1	22367	209.19758382583	2.0740860771204
1	22599	211.27166990295	10.475475490996
1	23901	221.747145393946	1.6875324158609
1	24090	223.434677809807	2.942394371509
1	24436	226.377072181316	2.5445046418384
1	24739	228.921576823154	4.8109067225766
1	25275	233.732483545731	2.5136321323075
1	25529	236.246115678039	0.89940269553539
1	25652	237.145518373574	0.94147455962258
1	25763	238.086992933197	0.51968658455061
1	25822	238.606679517748	1.9373962258142
1	26034	240.544075743562	2.8300761462429
1	26401	243.374151889805	2.17425025161
1	26608	245.548402141415	1.3171911743689
1	26749	246.865593315784	5.2409178080102
1	27422	252.106511123794	2.8950236502721
1	27699	255.001534774066	1.4636522509188
1	27863	256.465187024985	3.1874140837755
1	28203	259.652601108761	0.71154808246207
1	28291	260.364149191223	1.382844755491
1	28447	261.746993946714	2.611919315932
1	28713	264.358913262646	0.13766447293477
1	28719	264.496577735581	0.79469519061169
1	28791	265.291272926193	1.0082787239504
1	28892	266.299551650143	1.2134988648901
1	28994	267.513050515033	1.3088986301908
1	29114	268.821949145224	5.3713062901048
1	29713	274.193255435329	2.8991113823657
1	29973	277.092366817695	0.35342391787676
1	30018	277.445790735572	0.28152561404655
1	30043	277.727316349619	1.1881445952715
1	30132	278.915460944891	1.0777933100639
1	30212	279.993254254955	0.65612326355946
1	30269	280.649377518514	0.18445418582949
1	30285	280.833831704343	8.4988054753445
1	31255	289.332637179688	3.813364083907
1	31588	293.146001263595	0.40738604817361
1	31642	293.553387311769	3.5089704100147
1	32060	297.062357721784	4.9763644348854
1	32587	302.038722156669	0.23747745665909
1	32631	302.276199613328	3.6845436873409
1	32954	305.960743300669	2.427956909744
1	33199	308.388700210413	2.9960490980063
1	33506	311.384749308419	1.7042132682304
1	33695	313.088962576649	1.1241066317364
1	33843	314.213069208385	2.1614866135484
1	34092	316.374555821933	0.76885500129412
1	34210	317.143410823227	0.52440356492273
1	34264	317.66781438815	2.1593168793324
1	34411	319.827131267482	4.4083313246003
1	34888	324.235462592082	2.0090686419598
1	35102	326.244531234042	1.1010190117041
1	35219	327.345550245746	1.9268979399373
1	35412	329.272448185683	1.6734257991987
1	35605	330.945873984882	0.85517432678292
1	35663	331.801048311665	1.2012755267763
1	35809	333.002323838441	6.252352829665
1	36450	339.254676668106	0.93277687005686
1	36563	340.187453538163	1.6233504062083
1	36694	341.810803944371	1.2619669100083
1	36801	343.072770854379	2.8684584730706
1	37117	345.94122932745	1.4194880436274
1	37281	347.360717371077	0.36304811665637
1	37316	347.723765487733	3.0046601722008
1	37582	350.728425659934	1.5814491879806
1	37765	352.309874847915	0.59196949979336
1	37817	352.901844347708	1.937017324546
1	38034	354.838861672254	1.4406911083709
1	38198	356.279552780625	0.54597068125617
1	38254	356.825523461881	0.31403463155133
1	38291	357.139558093432	0.3155760442353
1	38332	357.455134137667	1.1888450986306
1	38491	358.643979236298	0.33105742882688
1	38525	358.975036665125	0.62482309313751
1	38573	359.599859758263	1.8147169388674
1	38766	361.41457669713	0.85413641973634
1	38826	362.268713116866	0.7321231768367
1	38873	363.000836293703	3.5659536719446
1	39266	366.566789965648	0.57918198899224
1	39327	367.14597195464	1.9802789047622
1	39510	369.126250859402	2.1405008188329
1	39740	371.266751678235	1.1711898555106
1	39832	372.437941533746	8.7835619441334
1	40744	381.221503477879	0.23349539046833
1	40747	381.454998868347	1.8498917487977
1	40915	383.304890617145	4.1101875948437
1	41350	387.415078211989	4.0923673209725
1	41782	391.507445532962	1.1456359940463
1	41903	392.653081527008	1.6507206205238
1	42095	394.303802147532	1.5423376702413
1	42206	395.846139817773	1.947008702274
1	42409	397.793148520047	0.86597527593811
1	42511	398.659123795985	9.4045013183173
2	1156	10.179118944976	0.2690294475984
2	1164	10.448148392574	0.89573677899358
2	1257	11.343885171568	0.37808856923619
2	1299	11.721973740804	0.67054334944686
2	1372	12.392517090251	13.226454769097
2	2704	25.618971859348	0.30487000128901
2	2727	25.923841860637	0.27232395076718
2	2754	26.196165811404	0.10813830189328
2	2771	26.304304113297	2.285452151035
2	3068	28.589756264332	1.3064691879028
2	3184	29.896225452235	4.868815721371
2	3730	34.765041173606	3.7204522626493
2	4101	38.485493436255	1.6308365780514
2	4313	40.116330014306	4.0350027008154
2	4743	44.151332715121	1.1518877987765
2	4847	45.303220513898	1.4719401104796
2	5000	46.775160624378	0.74303900209769
2	5087	47.518199626476	1.1523732852545
2	5183	48.670572911731	2.4960462941372
2	5472	51.166619205868	4.717315855608
2	6030	55.883935061476	0.17989962026186
2	6049	56.063834681738	0.70303303717486
2	6102	56.766867718913	2.0077250040363
2	6332	58.774592722949	1.4253353643121
2	6460	60.199928087261	0.30262792022959
2	6494	60.502556007491	0.42494367895338
2	6537	60.927499686444	1.1267204653907
2	6618	62.054220151835	0.89128233860964
2	6751	62.945502490445	2.36779628547
2	7027	65.313298775915	2.2126018947885
2	7281	67.525900670704	0.5987575089835
2	7391	68.124658179687	0.018873306085037
2	7395	68.143531485772	1.6295456755193
2	7555	69.773077161291	0.56414678999691
2	7589	70.337223951288	0.77312953660348
2	7702	71.110353487891	0.080091867264988
2	7718	71.190445355156	4.5342118849251
2	8299	75.724657240081	1.4080319747035
2	8478	77.132689214784	1.530238079782
2	8662	78.662927294566	3.0315673879305
2	9012	81.694494682497	3.2857997102716
2	9305	84.980294392769	0.81072435586072
2	9375	85.79101874863	2.1270079322683
2	9621	87.918026680898	0.017628742200798
2	9622	87.935655423099	3.8524984138835
2	10053	91.788153836983	0.090180521310124
2	10054	91.878334358293	0.26801091858413
2	10088	92.146345276877	0.58291382096547
2	10164	92.729259097842	2.2532448866356
2	10394	94.982503984478	7.0439341707596
2	11200	102.026438155238	1.0080511767929
2	11287	103.034489332031	0.75805801859085
2	11347	103.792547350622	1.3348298226541
2	11458	105.127377173276	0.087382351670453
2	11459	105.214759524946	1.9624033973079
2	11647	107.177162922254	2.6742340900136
2	11902	109.851397012268	0.95142834484193
2	11999	110.80282535711	1.1024991283837
2	12166	111.905324485494	0.34377708548887
2	12185	112.249101570983	2.3042570112255
2	12532	114.553358582209	0.73616606464657
2	12623	115.289524646856	0.51601611263843
2	12670	115.805540759494	2.4339241038332
2	12940	118.239464863327	1.7620141957295
2	13141	120.001479059057	1.3761043591517
2	13307	121.377583418209	1.0850022542623
2	13447	122.462585672471	0.084893395863861
2	13448	122.547479068335	0.36225093550211
2	13469	122.909730003837	2.2853858744451
2	13669	125.195115878282	1.8003933297806
2	13849	126.995509208063	1.5801698749278
2	14025	128.575679082991	2.4303721819399
2	14183	131.006051264931	7.6930585668433
2	14965	138.699109831774	0.76332521885097
2	15027	139.462435050625	1.2275493625726
2	15205	140.689984413198	4.4280818129821
2	15711	145.11806622618	5.3463016489022
2	16265	150.464367875082	0.93697467208126
2	16336	151.401342547163	2.9937225179412
2	16634	154.395065065104	0.17523271879045
2	16651	154.570297783894	0.78922642362267
2	16728	155.359524207517	2.049248291853
2	16961	157.40877249937	0.44818774506379
2	17010	157.856960244434	2.0771349937685
2	17208	159.934095238202	0.97298152875292
2	17335	160.907076766955	2.0600806926192
2	17525	162.967157459574	0.34216886548155
2	17574	163.309326325056	0.81696725545164
2	17667	164.126293580508	1.9658796333273
2	17851	166.092173213835	0.52333909371521
2	17887	166.61551230755	1.950042645196
2	18099	168.565554952746	2.3205272549357
2	18376	170.886082207682	0.41046096571644
2	18404	171.296543173398	0.57325210445429
2	18446	171.869795277852	0.052143121015573
2	18457	171.921938398868	3.0001993690653
2	18743	174.922137767933	0.84443151260783
2	18825	175.766569280541	0.0064389429954578
2	18826	175.773008223536	1.0285590921875
2	18936	176.801567315724	0.4648862473536
2	19013	177.266453563078	2.9762261842853
2	19322	180.242679747363	1.0020435715337
2	19441	181.244723318897	0.70557146420251
2	19526	181.9502947831	2.8452090058982
2	19784	184.795503788998	0.65748503838286
2	19875	185.452988827381	3.6796058832815
2	20310	189.132594710662	2.7834753887822
2	20599	191.916070099444	1.9800751496414
2	20790	193.896145249085	0.16785585913203
2	20823	194.064001108217	3.9307195379387
2	21230	197.994720646156	1.2681475188443
2	21328	199.262868165	2.7129112935186
2	21633	201.975779458519	0.12574170803131
2	21656	202.10152116655	0.21041011554043
2	21692	202.31193128209	0.28704749851368
2	21717	202.598978780604	2.6425241135111
2	21939	205.241502894115	0.76243706393097
2	22025	206.003939958046	0.48450951118484
2	22073	206.488449469231	3.263362788722
2	22417	209.751812257953	0.69715687128386
2	22507	210.448969129237	1.0290075121527
2	22626	211.47797664139	1.9699998812108
2	22854	213.447976522601	3.8057679299454
2	23308	217.253744452546	0.7641941715977
2	23400	218.017938624144	2.5226069105002
2	23755	220.540545534644	2.6202782217569
2	24028	223.160823756401	0.19945811491189
2	24081	223.360281871313	0.47602378817211
2	24136	223.836305659485	5.0836040386439
2	24738	228.919909698129	9.6787177200235
2	25818	238.598627418153	4.6450508834833
2	26383	243.243678301636	0.98791366638286
2	26488	244.231591968019	2.9824715890533
2	26793	247.214063557072	4.0668354446652
2	27335	251.280899001737	0.59416811561245
2	27397	251.875067117349	1.5577089015178
2	27560	253.432776018867	0.68174202254557
2	27622	254.114518041413	3.1406810274658
2	27941	257.255199068879	0.94306676437673
2	28071	258.198265833256	3.3870564850542
2	28421	261.58532231831	2.0288625360033
2	28638	263.614184854313	3.5639304744303
2	28970	267.178115328743	0.32194238626393
2	28993	267.500057715007	1.4664318709627
2	29136	268.96648958597	1.9319069264169
2	29321	270.898396512387	0.83037509625954
2	29437	271.728771608647	0.092453692848669
2	29448	271.821225301496	0.052972328970991
2	29450	271.874197630467	3.5630430911766
2	29791	275.437240721644	2.2134101609327
2	30040	277.650650882577	0.7897799528355
2	30093	278.440430835413	6.4748127908371
2	30741	284.91524362625	0.29880327946853
2	30764	285.214046905719	0.6071596126937
2	30834	285.821206518413	0.69410134737341
2	30913	286.515307865786	2.2013489254032
2	31203	288.716656791189	1.4905799170486
2	31317	290.207236708238	3.22314269014
2	31623	293.430379398378	1.2985785317951
2	31767	294.728957930173	2.2123976847962
2	32046	296.941355614969	1.1699677427461
2	32136	298.111323357715	6.3163734613088
2	32803	304.427696819024	2.8220730398964
2	33071	307.24976985892	2.2952467561904
2	33319	309.54501661511	0.70449562020559
2	33384	310.249512235316	12.694547410173
2	34763	322.944059645489	0.015084706031152
2	34766	322.95914435152	1.9697100429414
2	34947	324.928854394461	1.6937495922135
2	35147	326.622603986675	2.8558953357393
2	35426	329.478499322414	0.48472951409388
2	35519	329.963228836508	1.7549173112583
2	35661	331.718146147766	4.2354796115216
2	36121	335.953625759288	1.4261252531986
2	36265	337.379751012487	1.2945834119422
2	36366	338.674334424429	3.8930765610456
2	36776	342.567410985475	0.24218307015621
2	36793	342.809594055631	0.50864926614075
2	36827	343.318243321772	3.1401188138405
2	37168	346.458362135612	2.1313005883797
2	37381	348.589662723992	1.0873451825549
2	37466	349.677007906547	0.32152465075549
2	37512	349.998532557302	0.093917761520123
2	37515	350.092450318822	2.0488079623399
2	37743	352.141258281162	1.1225178063239
2	37851	353.263776087486	0.672728859661
2	37942	353.936504947147	0.87935070370458
2	38033	354.815855650852	2.2980218085457
2	38290	357.113877459398	4.3328988243229
2	38768	361.446776283721	0.051830201671484
2	38785	361.498606485392	0.18673122663276
2	38808	361.685337712025	0.86879135536189
2	38844	362.554129067387	2.1054743913628
2	39074	364.65960345875	1.2617546927385
2	39193	365.921358151488	1.7152192098381
2	39362	367.636577361326	2.0782730271715
2	39573	369.714850388498	3.2001732806917
2	39853	372.91502366919	0.39833066780322
2	39901	373.313354336993	1.7813229854373
2	40107	375.09467732243	2.1564881605925
2	40331	377.251165483022	1.2094995318326
2	40460	378.460665014855	0.22714976327783
2	40474	378.687814778133	3.2999829853656
2	40781	381.987797763499	2.6083497558804
2	41058	384.596147519379	0.32712783955175
2	41087	384.923275358931	8.9145528578561
2	42009	393.837828216787	2.5402711596294
2	42255	396.378099376416	1.3460437593362
2	42397	397.724143135752	1.6193712469394
2	42606	399.343514382691	4.4659266019716
3	1157	10.214022762208	0.252810383246
3	1165	10.466833145454	0.010101875361
3	1170	10.476935020815	0.015744717099
3	1175	10.492679737914	0.052807910013
3	1180	10.545487647927	0.075778257366
3	1185	10.621265905293	0.059174926762
3	1190	10.680440832055	0.0528859954
3	1195	10.733326827455	0.034533368895
3	1200	10.76786019635	0.184711726189
3	1206	10.952571922539	0.007267768878
3	1208	10.959839691417	0.061247313845
3	1216	11.021087005262	0.007675154352
3	1218	11.028762159614	0.04776057228
3	1226	11.076522731894	0.026762061348
3	1231	11.103284793242	0.036742703148
3	1236	11.14002749639	0.061009646
3	1241	11.20103714239	0.048507047213
3	1246	11.249544189603	0.016975711661
3	1251	11.266519901264	0.111671163095
3	1258	11.378191064359	0.020412659012
3	1263	11.398603723371	0.006872894601
3	1265	11.405476617972	0.214991537797
3	1274	11.620468155769	0.027145954948
3	1279	11.647614110717	0.012018979417
3	1284	11.659633090134	0.007739159532
3	1286	11.667372249666	0.01070038483
3	1294	11.678072634496	0.123315283021
3	1301	11.801387917517	0.009200270195
3	1306	11.810588187712	0.090432983465
3	1313	11.901021171177	0.025686315071
3	1318	11.926707486248	0.051065878012
3	1324	11.97777336426	0.066684824084
3	1330	12.044458188344	0.003613978915
3	1332	12.048072167259	0.034884689944
3	1340	12.082956857203	0.08423039686
3	1346	12.167187254063	0.001324424059
3	1348	12.168511678122	0.14263188765
3	1356	12.311143565772	0.0143896188
3	1361	12.325533184572	0.025532486272
3	1367	12.351065670844	0.059864078252
3	1373	12.410929749096	0.049588722371
3	1378	12.460518471467	0.035085936505
3	1384	12.495604407972	0.024616878358
3	1389	12.52022128633	0.173225651725
3	1396	12.693446938055	0.092898205872
3	1402	12.786345143927	0.004875166468
3	1404	12.791220310395	0.071217510765
3	1413	12.86243782116	0.1215720451
3	1419	12.98400986626	0.027931682136
3	1424	13.011941548396	0.024822061816
3	1431	13.036763610212	0.024028497322
3	1436	13.060792107534	0.016724834972
3	1441	13.077516942506	0.036982128574
3	1446	13.11449907108	0.127939142926
3	1453	13.242438214006	0.026425955979
3	1458	13.268864169985	0.09117266152
3	1463	13.360036831505	0.000615787062
3	1465	13.360652618567	0.053068340652
3	1473	13.413720959219	0.009839990713
3	1478	13.423560949932	0.035920485071
3	1483	13.459481435003	0.243491472853
3	1492	13.702972907856	0.077322704819
3	1497	13.780295612675	0.128322024547
3	1503	13.908617637222	0.017467222028
3	1508	13.92608485925	0.018278198261
3	1513	13.944363057511	0.058496737561
3	1518	14.002859795072	0.056693429389
3	1523	14.059553224461	0.027280597546
3	1529	14.086833822007	0.012144442523
3	1534	14.09897826453	0.055522193775
3	1539	14.154500458305	0.074908612723
3	1544	14.229409071028	0.096636988261
3	1549	14.326046059289	0.065021938796
3	1557	14.391067998085	0.019976795691
3	1562	14.411044793776	0.079703293448
3	1567	14.490748087224	0.018408562225
3	1572	14.509156649449	0.001522056101
3	1574	14.51067870555	0.063508333369
3	1582	14.574187038919	0.034758543602
3	1587	14.608945582521	0.060255152268
3	1592	14.669200734789	0.05843717922
3	1597	14.727637914009	0.147378078884
3	1603	14.875015992893	0.022172552491
3	1609	14.897188545384	0.005492728263
3	1611	14.902681273647	0.138136457171
3	1620	15.040817730818	0.038278218074
3	1625	15.079095948892	0.006058790589
3	1627	15.085154739481	0.035177676529
3	1635	15.12033241601	0.042680298625
3	1641	15.163012714635	0.17483961136
3	1647	15.337852325995	0.005646144983
3	1649	15.343498470978	0.112992936776
3	1659	15.456491407754	0.156214125094
3	1667	15.612705532848	0.058054662688
3	1672	15.670760195536	0.028226888166
3	1677	15.698987083702	0.013246984415
3	1682	15.712234068117	0.010519044811
3	1687	15.722753112928	0.020130284749
3	1692	15.742883397677	0.061913049444
3	1697	15.804796447121	0.012654974316
3	1702	15.817451421437	0.06089879849
3	1707	15.878350219927	0.088571582979
3	1712	15.966921802906	0.072244586037
3	1718	16.039166388943	0.076612704611
3	1726	16.115779093554	0.032650220208
3	1731	16.148429313762	0.017258559914
3	1736	16.165687873676	0.027304376784
3	1741	16.19299225046	0.056747894149
3	1748	16.249740144609	0.108604799529
3	1753	16.358344944138	0.023931918649
3	1758	16.382276862787	0.064401395925
3	1764	16.446678258712	0.002014416611
3	1766	16.448692675323	0.032917765689
3	1774	16.481610441012	0.276824222496
3	1781	16.758434663508	0.102787117408
3	1788	16.861221780916	0.020177978755
3	1793	16.881399759671	0.015930672722
3	1798	16.897330432393	0.080611087462
3	1803	16.977941519855	0.118617403356
3	1808	17.096558923211	0.111880427363
3	1815	17.208439350574	0.044434011558
3	1820	17.252873362132	0.003448970918
3	1822	17.25632233305	0.026361951196
3	1830	17.282684284246	0.018505859623
3	1835	17.301190143869	0.155743397971
3	1840	17.45693354184	0.089302004012
3	1846	17.546235545852	0.084637523427
3	1852	17.630873069279	0.241843480293
3	1857	17.872716549572	0.042987758348
3	1862	17.91570430792	0.017125911371
3	1867	17.932830219291	0.000509602061
3	1869	17.933339821352	0.044341641841
3	1877	17.977681463193	0.020028723237
3	1882	17.99771018643	0.158847583131
3	1887	18.156557769561	0.012465493716
3	1892	18.169023263277	0.039152600484
3	1897	18.208175863761	0.000777074414
3	1899	18.208952938175	0.019731990192
3	1907	18.228684928367	0.173825940329
3	1914	18.402510868696	0.023094620887
3	1919	18.425605489583	0.042603136565
3	1925	18.468208626148	0.148137050763
3	1930	18.616345676911	0.128353846049
3	1937	18.74469952296	0.038883568505
3	1942	18.783583091465	0.221535465801
3	1950	19.005118557266	0.024839454395
3	1956	19.029958011661	0.008373478172
3	1958	19.038331489833	0.039078591317
3	1966	19.07741008115	0.02219974723
3	1971	19.09960982838	0.004162592009
3	1973	19.103772420389	0.13617534637
3	1982	19.239947766759	0.016269589218
3	1987	19.256217355977	0.004347272491
3	1989	19.260564628468	0.045541177517
3	1997	19.306105805985	0.026931787668
3	2002	19.333037593653	0.129696640651
3	2007	19.462734234304	0.004398885356
3	2009	19.46713311966	0.032699852086
3	2018	19.499832971746	0.015533982935
3	2023	19.515366954681	0.142816952354
3	2028	19.658183907035	0.019672070977
3	2033	19.677855978012	0.009621434544
3	2038	19.687477412556	0.048139765867
3	2044	19.735617178423	0.012361485094
3	2049	19.747978663517	0.015423923276
3	2054	19.763402586793	0.016920289362
3	2059	19.780322876155	0.054044743987
3	2065	19.834367620142	0.038342672122
3	2071	19.872710292264	0.09111864169
3	2076	19.963828933954	0.013862973482
3	2081	19.977691907436	0.026661503174
3	2087	20.00435341061	0.009330121486
3	2092	20.013683532096	0.017658302178
3	2097	20.031341834274	0.057724759996
3	2102	20.08906659427	0.00870601658
3	2107	20.09777261085	0.012261005216
3	2112	20.110033616066	0.118014671744
3	2118	20.22804828781	0.089400927641
3	2123	20.317449215451	0.051656473446
3	2128	20.369105688897	0.041047509921
3	2133	20.410153198818	0.012046311162
3	2138	20.42219950998	0.051185324862
3	2144	20.473384834842	0.084078195566
3	2149	20.557463030408	0.018028188194
3	2154	20.575491218602	0.061772750118
3	2159	20.63726396872	0.017325361794
3	2164	20.654589330514	0.074726200854
3	2170	20.729315531368	0.109804768766
3	2176	20.839120300134	0.006809630452
3	2178	20.845929930586	0.016491337712
3	2186	20.862421268298	0.052299118217
3	2191	20.914720386515	0.023056013147
3	2196	20.937776399662	0.038052265281
3	2202	20.975828664943	0.002350471102
3	2204	20.978179136045	0.00545542016
3	2209	20.983634556205	0.005283471778
3	2211	20.988918027983	0.03574453732
3	2223	21.024662565303	0.033846906322
3	2228	21.058509471625	0.084589035539
3	2234	21.143098507164	0.00930203723
3	2239	21.152400544394	0.03062115896
3	2244	21.183021703354	0.024598043928
3	2249	21.207619747282	0.101745450653
3	2254	21.309365197935	0.025338200794
3	2259	21.334703398729	0.016087251537
3	2264	21.350790650266	0.049286077326
3	2269	21.400076727592	0.012092958008
3	2274	21.4121696856	0.037372628582
3	2280	21.449542314182	0.01672882459
3	2285	21.466271138772	0.100544641407
3	2292	21.566815780179	0.095349051815
3	2297	21.662164831994	0.010575087531
3	2302	21.672739919525	0.016232746487
3	2307	21.688972666012	0.006153739627
3	2309	21.695126405639	0.003832632136
3	2314	21.698959037775	0.005583550964
3	2319	21.704542588739	0.008391962076
3	2324	21.712934550815	0.04374393643
3	2332	21.756678487245	0.090315486296
3	2337	21.846993973541	0.007708353054
3	2342	21.854702326595	0.006846563056
3	2344	21.861548889651	0.025264829466
3	2354	21.886813719117	0.092714903114
3	2360	21.979528622231	0.061898750119
3	2365	22.04142737235	0.043476963624
3	2371	22.084904335974	0.056717176177
3	2377	22.141621512151	0.015017910661
3	2383	22.156639422812	0.141864359368
3	2388	22.29850378218	0.104809964848
3	2394	22.403313747028	0.063851796442
3	2400	22.46716554347	0.087646158957
3	2407	22.554811702427	0.169168605264
3	2413	22.723980307691	0.019961053305
3	2419	22.743941360996	0.055527926188
3	2425	22.799469287184	0.013230398596
3	2430	22.81269968578	0.034257211395
3	2435	22.846956897175	0.078289712358
3	2442	22.925246609533	0.040196704045
3	2447	22.965443313578	0.075517147191
3	2452	23.040960460769	0.210122648381
3	2459	23.25108310915	0.019246859942
3	2464	23.270329969092	0.014122996569
3	2470	23.284452965661	0.041164583072
3	2475	23.325617548733	0.15339058653
3	2480	23.479008135263	0.060319761561
3	2485	23.539327896824	0.003085560771
3	2487	23.542413457595	0.01490515214
3	2495	23.557318609735	0.108398210575
3	2501	23.66571682031	0.03100118053
3	2507	23.69671800084	0.010152341136
3	2512	23.706870341976	0.085594587759
3	2518	23.792464929735	0.02637600021
3	2523	23.818840929945	0.043570415133
3	2528	23.862411345078	0.146286737454
3	2533	24.008698082532	0.060538553325
3	2539	24.069236635857	0.064146441265
3	2544	24.133383077122	0.001884757135
3	2546	24.135267834257	0.016929224998
3	2554	24.152197059255	0.249972817691
3	2560	24.402169876946	0.078490787923
3	2566	24.480660664869	0.007798546834
3	2571	24.488459211703	0.007377292782
3	2573	24.495836504485	0.033697852488
3	2581	24.529534356973	0.01323833994
3	2586	24.542772696913	0.019326693704
3	2591	24.562099390617	0.031844624966
3	2596	24.593944015583	0.030972629744
3	2601	24.624916645327	0.018397949147
3	2607	24.643314594474	0.031276858228
3	2612	24.674591452702	0.034797227789
3	2617	24.709388680491	0.090404698702
3	2624	24.799793379193	0.038370664136
3	2630	24.838164043329	0.057590943205
3	2635	24.895754986534	0.005192785851
3	2637	24.900947772385	0.022188424405
3	2645	24.92313619679	0.127336183786
3	2652	25.050472380576	0.054661110217
3	2657	25.105133490793	0.007782256061
3	2662	25.112915746854	0.05073818314
3	2668	25.163653929994	0.008908137088
3	2673	25.172562067082	0.072715713376
3	2679	25.245277780458	0.074219889044
3	2684	25.319497669502	0.063591959987
3	2689	25.383089629489	0.068327244934
3	2694	25.451416874423	0.140794410856
3	2699	25.592211285279	0.035660052137
3	2705	25.627871337416	0.090042837426
3	2710	25.717914174842	0.173362548533
3	2717	25.891276723375	0.019476984245
3	2722	25.91075370762	0.031419254149
3	2728	25.942172961769	0.032453033941
3	2733	25.97462599571	0.008055157798
3	2738	25.982681153508	0.077235810545
3	2743	26.059916964053	0.101515702861
3	2749	26.161432666914	0.055104052089
3	2755	26.216536719003	0.01322262497
3	2760	26.229759343973	0.02017132367
3	2765	26.249930667643	0.115290515017
3	2772	26.36522118266	0.022209276204
3	2777	26.387430458864	0.068170046138
3	2782	26.455600505002	0.024401075334
3	2787	26.480001580336	0.08782297241
3	2792	26.567824552746	0.027272074392
3	2797	26.595096627138	0.042112514096
3	2802	26.637209141234	0.015462793269
3	2808	26.652671934503	0.02878970791
3	2813	26.681461642413	0.037649890779
3	2818	26.719111533192	0.009513234638
3	2823	26.72862476783	0.046020855346
3	2828	26.774645623176	0.003565988379
3	2830	26.778211611555	0.011356456112
3	2835	26.789568067667	0.03710030825
3	2843	26.826668375917	0.016616793109
3	2848	26.843285169026	0.06023765017
3	2854	26.903522819196	0.000128831924
3	2856	26.90365165112	0.022908553799
3	2864	26.926560204919	0.078931781042
3	2870	27.005491985961	0.026727112903
3	2875	27.032219098864	0.006096234071
3	2877	27.038315332935	0.024310755854
3	2885	27.062626088789	0.030498928224
3	2890	27.093125017013	0.003242158742
3	2892	27.096367175755	0.016970813054
3	2900	27.113337988809	0.002738269967
3	2902	27.116076258776	0.04853497045
3	2910	27.164611229226	0.018819649189
3	2915	27.183430878415	0.020731083406
3	2922	27.204161961821	0.02457237165
3	2927	27.228734333471	0.017586758417
3	2932	27.246321091888	0.107911592686
3	2938	27.354232684574	0.181052477273
3	2948	27.535285161847	0.061938252311
3	2955	27.597223414158	0.046257002024
3	2960	27.643480416182	0.02202495694
3	2966	27.665505373122	0.03173529115
3	2971	27.697240664272	0.011713673645
3	2976	27.708954337917	0.125707881895
3	2981	27.834662219812	0.045457076199
3	2987	27.880119296011	0.038032155307
3	2992	27.918151451318	0.133531475304
3	2998	28.051682926622	0.044868339688
3	3003	28.09655126631	0.077208401489
3	3008	28.173759667799	0.001006384582
3	3010	28.174766052381	0.017149558869
3	3018	28.19191561125	0.03774379601
3	3023	28.22965940726	0.103163739102
3	3028	28.332823146362	0.018354669819
3	3033	28.351177816181	0.016441430949
3	3038	28.36761924713	0.001884263711
3	3040	28.369503510841	0.082214852267
3	3048	28.451718363108	0.060918356721
3	3053	28.512636719829	0.036761379435
3	3058	28.549398099264	0.022880689043
3	3063	28.572278788307	0.020789288898
3	3069	28.593068077205	0.072204767508
3	3074	28.665272844713	0.016239322889
3	3079	28.681512167602	0.02619180989
3	3085	28.707703977492	0.068334214046
3	3090	28.776038191538	0.080237719745
3	3095	28.856275911283	0.052763462384
3	3101	28.909039373667	0.047502420914
3	3106	28.956541794581	0.029839983819
3	3111	28.9863817784	0.147480258852
3	3117	29.133862037252	0.039668885288
3	3122	29.17353092254	0.02689476886
3	3128	29.2004256914	0.099404289021
3	3134	29.299829980421	0.035761386209
3	3139	29.33559136663	0.146782348161
3	3144	29.482373714791	0.052993161359
3	3149	29.53536687615	0.030016257311
3	3154	29.565383133461	0.047530530129
3	3161	29.61291366359	0.027329531415
3	3166	29.640243195005	0.112803686788
3	3171	29.753046881793	0.126729815292
3	3179	29.879776697085	0.051521396865
3	3185	29.93129809395	0.047043820418
3	3191	29.978341914368	0.05683886069
3	3197	30.035180775058	0.045304750649
3	3203	30.080485525707	0.09027343345
3	3209	30.170758959157	0.064665774567
3	3214	30.235424733724	0.002908944926
3	3217	30.23833367865	0.02333885196
3	3226	30.26167253061	0.004601884251
3	3228	30.266274414861	0.013857502249
3	3236	30.28013191711	0.032470084858
3	3241	30.312602001968	0.058073690515
3	3246	30.370675692483	0.003997279403
3	3248	30.374672971886	0.009113336842
3	3253	30.383786308728	0.167347425842
3	3262	30.55113373457	0.10411852314
3	3267	30.65525225771	0.100767856308
3	3275	30.756020114018	0.032445822939
3	3280	30.788465936957	0.015809545044
3	3285	30.804275482001	0.001270769151
3	3287	30.805546251152	0.00452712164
3	3289	30.810073372792	0.009645390391
3	3297	30.819718763183	0.115991950341
3	3305	30.935710713524	0.001533225348
3	3307	30.937243938872	0.003090050486
3	3309	30.940333989358	0.17592124503
3	3322	31.116255234388	0.136393706514
3	3327	31.252648940902	0.012627206757
3	3332	31.265276147659	0.174378795527
3	3339	31.439654943186	0.203767186413
3	3344	31.643422129599	0.048079426854
3	3349	31.691501556453	0.034635840538
3	3354	31.726137396991	0.064988103158
3	3359	31.791125500149	0.004960712119
3	3361	31.796086212268	0.01732220588
3	3369	31.813408418148	0.064208363556
3	3375	31.877616781704	0.067678526345
3	3381	31.945295308049	0.037463830981
3	3387	31.98275913903	0.067047103839
3	3393	32.049806242869	0.005616665206
3	3396	32.055422908075	0.027775379502
3	3404	32.083198287577	0.027245379117
3	3409	32.110443666694	0.038663808697
3	3414	32.149107475391	0.040314881357
3	3419	32.189422356748	0.00435590411
3	3421	32.193778260858	0.002297966348
3	3423	32.196076227206	0.041774006527
3	3435	32.237850233733	0.009825289498
3	3440	32.247675523231	0.058651537713
3	3445	32.306327060944	0.001665233844
3	3447	32.307992294788	0.073519195724
3	3455	32.381511490512	0.005053113085
3	3457	32.386564603597	0.109335072711
3	3465	32.495899676308	0.000157888818
3	3467	32.496057565126	0.078556483541
3	3476	32.574614048667	0.004438185338
3	3478	32.579052234005	0.000306054161
3	3480	32.579358288166	0.028219347718
3	3491	32.607577635884	0.222722836702
3	3497	32.830300472586	0.141458205178
3	3504	32.971758677764	0.069781987955
3	3511	33.041540665719	0.079062384729
3	3518	33.120603050448	0.013596706005
3	3523	33.134199756453	0.040713900374
3	3528	33.174913656827	0.01595229028
3	3533	33.190865947107	0.01431472694
3	3538	33.205180674047	0.004706846146
3	3540	33.209887520193	0.02973872097
3	3550	33.239626241163	0.002737113558
3	3552	33.242363354721	0.023034689056
3	3560	33.265398043777	0.046430385496
3	3566	33.311828429273	0.003923562361
3	3568	33.315751991634	0.035923509429
3	3576	33.351675501063	0.077745375212
3	3582	33.429420876275	0.044254025332
3	3588	33.473674901607	0.061806017158
3	3593	33.535480918765	0.041832190794
3	3598	33.577313109559	0.048669557222
3	3603	33.625982666781	0.128409655829
3	3612	33.75439232261	0.006018974343
3	3614	33.760411296953	0.06628486052
3	3622	33.826696157473	0.103341397538
3	3627	33.930037555011	0.114826964903
3	3632	34.044864519914	0.04179351092
3	3637	34.086658030834	0.021974777082
3	3642	34.108632807916	0.110297159871
3	3647	34.218929967787	0.085916062106
3	3652	34.304846029893	0.003484042448
3	3654	34.308330072341	0.007025099151
3	3659	34.315355171492	0.016454906794
3	3667	34.331810078286	0.050410026802
3	3673	34.382220105088	0.010258796162
3	3678	34.39247890125	0.028076101511
3	3683	34.420555002761	0.051512369458
3	3688	34.472067372219	0.030089981608
3	3694	34.502157353827	0.017648349919
3	3700	34.519805703746	0.016698836075
3	3705	34.536504539821	0.020566087023
3	3710	34.557070626844	0.052688044122
3	3715	34.609758670966	0.045572162911
3	3720	34.655330833877	0.016072040698
3	3725	34.671402874575	0.270262167899
3	3731	34.941665042474	0.025535284793
3	3736	34.967200327267	0.01242048258
3	3741	34.979620809847	0.01212835507
3	3746	34.991749164917	0.01352143069
3	3751	35.005270595607	0.00600639994
3	3753	35.011276995547	0.330968722282
3	3763	35.342245717829	0.015594155636
3	3768	35.357839873465	0.040577674739
3	3773	35.398417548204	0.015546365446
3	3778	35.41396391365	0.001921795726
3	3780	35.415885709376	0.153709714209
3	3789	35.569595423585	0.000423923253
3	3791	35.570019346838	0.012525699077
3	3796	35.582545045915	0.022582259246
3	3804	35.605127305161	0.027628279505
3	3809	35.632755584666	0.028597242726
3	3814	35.661352827392	0.143258238303
3	3821	35.804611065695	0.072972791273
3	3826	35.877583856968	0.070499053196
3	3831	35.948082910164	0.013082910578
3	3836	35.961165820742	0.004444499016
3	3838	35.965610319758	0.133462087548
3	3848	36.099072407306	0.061323349153
3	3854	36.160395756459	0.099670198195
3	3860	36.260065954654	0.023097836033
3	3865	36.283163790687	0.022412301947
3	3870	36.305576092634	0.180986323627
3	3875	36.486562416261	0.040267914728
3	3881	36.526830330989	0.074669538485
3	3886	36.601499869474	0.035358651189
3	3892	36.636858520663	0.050290971385
3	3898	36.687149492048	0.000808690505
3	3900	36.687958182553	0.04286711963
3	3908	36.730825302183	0.134269997854
3	3915	36.865095300037	0.104560272144
3	3920	36.969655572181	0.160579125245
3	3926	37.130234697426	0.002083858169
3	3928	37.132318555595	0.005970866554
3	3933	37.138289422149	0.049118270605
3	3941	37.187407692754	0.007854957052
3	3947	37.195262649806	0.060485127771
3	3952	37.255747777577	0.064668498159
3	3961	37.320416275736	0.0870660196
3	3966	37.407482295336	0.009288472651
3	3971	37.416770767987	0.001196924135
3	3973	37.417967692122	0.098305894063
3	3982	37.516273586185	0.02098243622
3	3987	37.537256022405	0.023391124443
3	3992	37.560647146848	0.001350212527
3	3994	37.561997359375	0.069983798858
3	4003	37.631981158233	0.023324680267
3	4008	37.6553058385	0.053623255992
3	4016	37.708929094492	0.039454061148
3	4021	37.74838315564	0.023075676602
3	4027	37.771458832242	0.053405705456
3	4033	37.824864537698	0.031348966061
3	4038	37.856213503759	0.117732364328
3	4043	37.973945868087	0.084824762685
3	4048	38.058770630772	0.000395701357
3	4050	38.059166332129	0.02144461765
3	4058	38.080610949779	0.137574873031
3	4064	38.21818582281	0.083828516097
3	4069	38.302014338907	0.026086378113
3	4074	38.32810071702	0.05354784958
3	4079	38.3816485666	0.004575751832
3	4081	38.386224318432	0.036276238598
3	4089	38.42250055703	0.048748934563
3	4094	38.471249491593	0.007457608068
3	4096	38.478707099661	0.048517984913
3	4105	38.527225084574	0.015146648743
3	4111	38.542371733317	0.009135119999
3	4116	38.551506853316	0.094396843956
3	4121	38.645903697272	0.071120087284
3	4128	38.717023784556	0.021709591427
3	4133	38.738733375983	2.0894326e-05
3	4135	38.738754270309	0.126583387555
3	4144	38.865337657864	0.035112650055
3	4149	38.900450307919	0.018947665067
3	4154	38.919397972986	0.03530511063
3	4159	38.954703083616	0.060623059487
3	4164	39.015326143103	0.03447924347
3	4170	39.049805386573	0.012887859127
3	4175	39.0626932457	0.002154682539
3	4177	39.064847928239	0.00457073054
3	4179	39.069418658779	0.073073351538
3	4190	39.142492010317	0.003251291504
3	4192	39.145743301821	0.001829816772
3	4194	39.147573118593	0.172660250047
3	4209	39.32023336864	0.034365274343
3	4215	39.354598642983	0.004799263909
3	4217	39.359397906892	0.042113427691
3	4225	39.401511334583	0.108489130485
3	4231	39.510000465068	0.033628118032
3	4236	39.5436285831	0.014884800705
3	4241	39.558513383805	0.051856692642
3	4246	39.610370076447	0.046497869052
3	4251	39.656867945499	0.048930319114
3	4257	39.705798264613	0.028450897853
3	4262	39.734249162466	0.005433560093
3	4264	39.739682722559	0.015086056056
3	4272	39.754768778615	0.006633394681
3	4274	39.761402173296	0.10219460049
3	4282	39.863596773786	0.031596213734
3	4288	39.89519298752	0.003834104437
3	4290	39.899027091957	0.053410113264
3	4298	39.952437205221	0.004202569319
3	4300	39.95663977454	0.038724216774
3	4308	39.995363991314	0.126164783798
3	4314	40.121528775112	0.022759953755
3	4319	40.144288728867	0.046889379852
3	4324	40.191178108719	0.042829672121
3	4329	40.23400778084	0.006321833402
3	4331	40.240329614242	0.108696780096
3	4339	40.349026394338	0.00679532959
3	4341	40.355821723928	0.098546264486
3	4349	40.454367988414	0.05154416852
3	4355	40.505912156934	0.068285423368
3	4360	40.574197580302	0.04596173597
3	4365	40.620159316272	0.014378599778
3	4371	40.63453791605	0.01393002009
3	4376	40.64846793614	0.08743667697
3	4383	40.73590461311	0.000574501261
3	4385	40.736479114371	0.009740358352
3	4390	40.746219472723	0.035436371436
3	4398	40.781655844159	0.019303239711
3	4403	40.80095908387	0.011291489291
3	4408	40.812250573161	0.048647967471
3	4413	40.860898540632	0.080417198079
3	4418	40.941315738711	0.030773675128
3	4423	40.972089413839	0.071854903161
3	4429	41.043944317	0.033272426006
3	4434	41.077216743006	0.110692821131
3	4440	41.187909564137	0.020504763058
3	4445	41.208414327195	0.070738663567
3	4450	41.279152990762	0.104875282817
3	4455	41.384028273579	0.047081957175
3	4460	41.431110230754	0.103880212979
3	4465	41.534990443733	0.050998122131
3	4470	41.585988565864	0.002311863009
3	4472	41.588300428873	0.075031486509
3	4480	41.663331915382	0.003329450852
3	4482	41.666661366234	0.00122132261
3	4484	41.667882688844	0.118323284427
3	4497	41.786205973271	0.002476841319
3	4499	41.78868281459	0.040525583373
3	4507	41.829208397963	0.023486663057
3	4512	41.85269506102	0.010179187661
3	4517	41.862874248681	0.023356870324
3	4522	41.886231119005	0.010091808723
3	4527	41.896322927728	0.091619315288
3	4533	41.987942243016	0.008071976388
3	4538	41.996014219404	0.072533192442
3	4543	42.068547411846	0.152857597144
3	4549	42.22140500899	0.074023447126
3	4555	42.295428456116	0.002017857258
3	4557	42.297446313374	0.014984673967
3	4565	42.312430987341	0.05640595294
3	4572	42.368836940281	0.00442097862
3	4574	42.373257918901	0.029433102185
3	4582	42.402691021086	0.068525659903
3	4587	42.471216680989	0.029811826777
3	4592	42.501028507766	0.01502638334
3	4597	42.516054891106	0.204121231452
3	4603	42.720176122558	0.011147208909
3	4608	42.731323331467	0.172334088662
3	4615	42.903657420129	0.106551554516
3	4621	43.010208974645	0.103969789715
3	4626	43.11417876436	0.01538947353
3	4631	43.12956823789	0.066795395918
3	4637	43.196363633808	0.021176456361
3	4642	43.217540090169	0.033232459693
3	4647	43.250772549862	0.002473543946
3	4649	43.253246093808	0.02699586308
3	4657	43.280241956888	0.101396447612
3	4662	43.3816384045	0.003439721532
3	4664	43.385078126032	0.099799503528
3	4674	43.48487762956	0.001805609147
3	4676	43.486683238707	0.131228619435
3	4686	43.617911858142	0.039751738946
3	4692	43.657663597088	0.000840969394
3	4694	43.658504566482	0.076971373775
3	4702	43.735475940257	0.128971165077
3	4709	43.864447105334	0.017932131725
3	4714	43.882379237059	0.075082830952
3	4721	43.957462068011	0.029396927768
3	4727	43.986858995779	0.033676517258
3	4733	44.020535513037	0.031713053316
3	4738	44.052248566353	0.104609281797
3	4744	44.15685784815	0.073302158227
3	4750	44.230160006377	0.163591685638
3	4756	44.393751692015	0.012128631075
3	4761	44.40588032309	0.083094650408
3	4767	44.488974973498	0.026037955269
3	4773	44.515012928767	0.027882072181
3	4778	44.542895000948	0.012633113428
3	4783	44.555528114376	0.047994181323
3	4788	44.603522295699	0.060117678051
3	4793	44.66363997375	0.004277931837
3	4795	44.667917905587	0.043728816658
3	4804	44.711646722245	0.15452049269
3	4809	44.866167214935	0.018960752522
3	4814	44.885127967457	0.239884402918
3	4819	45.125012370375	0.001661792295
3	4821	45.12667416267	0.044844113055
3	4830	45.171518275725	0.011695647667
3	4835	45.183213923392	0.088011026767
3	4840	45.271224950159	0.030947161248
3	4845	45.302172111407	0.042051521828
3	4851	45.344223633235	0.082041281315
3	4859	45.42626491455	0.015729494362
3	4864	45.441994408912	0.061018867528
3	4869	45.50301327644	0.083844230945
3	4874	45.586857507385	0.032632111107
3	4879	45.619489618492	0.009720861524
3	4885	45.629210480016	0.020785593542
3	4891	45.649996073558	0.017140128575
3	4896	45.667136202133	0.043152462474
3	4902	45.710288664607	0.066492114459
3	4908	45.776780779066	0.036990888288
3	4914	45.813771667354	0.018459639903
3	4919	45.832231307257	0.226024659199
3	4925	46.058255966456	0.045822979612
3	4931	46.104078946068	0.067016949914
3	4937	46.171095895982	0.03231346391
3	4943	46.203409359892	0.106033826508
3	4948	46.3094431864	0.139013810192
3	4953	46.448456996592	0.027461931792
3	4959	46.475918928384	0.023986664249
3	4964	46.499905592633	0.002161157037
3	4966	46.50206674967	0.01362165465
3	4974	46.51568840432	0.032956575856
3	4980	46.548644980176	0.048880691506
3	4985	46.597525671682	0.034620833933
3	4990	46.632146505615	0.110264453522
3	4995	46.742410959137	0.137512349499
3	5003	46.879923308636	0.014115643302
3	5008	46.894038951938	0.058983191299
3	5014	46.953022143237	0.02912504784
3	5019	46.982147191077	0.089027095143
3	5024	47.07117428622	0.006503801362
3	5026	47.077678087582	0.019590817893
3	5034	47.097268905475	0.072337248976
3	5039	47.169606154451	0.077919795871
3	5044	47.247525950322	0.067499812888
3	5050	47.31502576321	0.022651921492
3	5055	47.337677684702	0.002443580863
3	5057	47.340121265565	0.102908185828
3	5065	47.443029451393	2.4263277e-05
3	5067	47.44305371467	0.021188259844
3	5075	47.464241974514	0.036836591843
3	5080	47.501078566357	0.01225807741
3	5085	47.513336643767	0.082554588485
3	5091	47.595891232252	0.056049848591
3	5096	47.651941080843	0.00626903935
3	5098	47.658210120193	0.061341414572
3	5106	47.719551534765	0.003986603048
3	5108	47.723538137813	0.005935386207
3	5113	47.72947352402	0.108362348158
3	5122	47.837835872178	0.047675153078
3	5127	47.885511025256	0.037372254439
3	5132	47.922883279695	0.127479808343
3	5137	48.050363088038	0.077310075301
3	5143	48.127673163339	0.131788617582
3	5148	48.259461780921	0.030377523199
3	5153	48.28983930412	0.020042430074
3	5158	48.309881734194	0.10325226014
3	5163	48.413133994334	0.051694204433
3	5168	48.464828198767	0.086965449326
3	5173	48.551793648093	0.075853127849
3	5178	48.627646775942	0.049446417697
3	5184	48.677093193639	0.013836082932
3	5189	48.690929276571	0.048620994355
3	5195	48.739550270926	0.034738620266
3	5200	48.774288891192	0.000569057058
3	5202	48.77485794825	0.019780207474
3	5210	48.794638155724	0.080308146633
3	5216	48.874946302357	0.025045020091
3	5221	48.899991322448	0.075873055529
3	5228	48.975864377977	0.082917053398
3	5233	49.058781431375	0.026916708177
3	5238	49.085698139552	0.039392032418
3	5243	49.12509017197	0.050257530586
3	5248	49.175347702556	0.074828521548
3	5253	49.250176224104	0.03608580757
3	5259	49.286262031674	0.05867403627
3	5264	49.344936067944	0.018115565247
3	5269	49.363051633191	0.00794364371
3	5271	49.370995276901	0.120360564577
3	5280	49.491355841478	0.008365358809
3	5282	49.499721200287	0.00221853822
3	5287	49.501939738507	0.021946820531
3	5295	49.523886559038	0.046521090649
3	5300	49.570407649687	0.022992963593
3	5306	49.59340061328	0.093698234959
3	5311	49.687098848239	0.007441304408
3	5313	49.694540152647	0.031965765161
3	5322	49.726505917808	0.032019973106
3	5327	49.758525890914	0.038577920197
3	5332	49.797103811111	0.015521877709
3	5338	49.81262568882	0.083421456655
3	5344	49.896047145475	0.046667454455
3	5349	49.94271459993	0.032617670015
3	5355	49.975332269945	0.008791621731
3	5360	49.984123891676	0.117696290881
3	5367	50.101820182557	0.077202141589
3	5372	50.179022324146	0.033259368972
3	5377	50.212281693118	0.003397669618
3	5379	50.215679362736	0.086156570102
3	5387	50.301835932838	0.086649867661
3	5394	50.388485800499	0.021934916424
3	5399	50.410420716923	0.009548022075
3	5404	50.419968738998	0.271991691642
3	5409	50.69196043064	0.009101017414
3	5414	50.701061448054	0.080184401298
3	5419	50.781245849352	0.078314483703
3	5425	50.859560333055	0.0926902253
3	5430	50.952250558355	0.046789144829
3	5437	50.999039703184	0.107153277788
3	5442	51.106192980972	0.014883033044
3	5447	51.121076014016	0.002372054226
3	5449	51.123448068242	0.000580079811
3	5451	51.124028148053	0.000430356442
3	5453	51.124458504495	0.012723203577
3	5458	51.137181708072	0.106751949564
3	5473	51.243933657636	0.056365500236
3	5478	51.300299157872	0.007666228692
3	5480	51.307965386564	0.019911630002
3	5489	51.327877016566	0.006661126298
3	5491	51.334538142864	0.093938403409
3	5500	51.428476546273	0.045167172633
3	5505	51.473643718906	0.028788976844
3	5510	51.50243269575	0.123846444886
3	5515	51.626279140636	0.021709592667
3	5520	51.647988733303	0.003240098046
3	5522	51.651228831349	0.014857858477
3	5530	51.666086689826	0.040770652023
3	5536	51.706857341849	0.045323665577
3	5541	51.752181007426	0.163875398782
3	5548	51.916056406208	0.014169192561
3	5553	51.930225598769	0.041643258198
3	5558	51.971868856967	0.005735150745
3	5560	51.977604007712	0.013464680509
3	5568	51.991068688221	0.047381667849
3	5574	52.03845035607	0.131242645233
3	5579	52.169693001303	0.147145722135
3	5584	52.316838723438	0.007035882989
3	5586	52.323874606427	0.032712079866
3	5594	52.356586686293	0.076985826136
3	5599	52.433572512429	0.045579443488
3	5604	52.479151955917	0.025470677798
3	5609	52.504622633715	0.045271675458
3	5615	52.549894309173	0.007208023989
3	5617	52.557102333162	0.009311009339
3	5625	52.566413342501	0.083238515552
3	5632	52.649651858053	0.022700745325
3	5638	52.672352603378	0.047148514099
3	5643	52.719501117477	0.015575304022
3	5648	52.735076421499	0.033579577051
3	5653	52.76865599855	0.088692800105
3	5658	52.857348798655	0.079852138135
3	5663	52.93720093679	0.059945250612
3	5668	52.997146187402	0.045615643595
3	5674	53.042761830997	0.006567486029
3	5676	53.049329317026	0.003857620668
3	5681	53.053186937694	0.022790324314
3	5689	53.075977262008	0.009997574791
3	5694	53.085974836799	0.056537988831
3	5699	53.14251282563	0.020576087035
3	5704	53.163088912665	0.048746737351
3	5709	53.211835650016	0.009391245067
3	5714	53.221226895083	0.109269307819
3	5720	53.330496202902	0.002875212353
3	5722	53.333371415255	0.01365120216
3	5730	53.347022617415	0.032152732845
3	5735	53.37917535026	0.001222132634
3	5737	53.380397482894	0.038278229538
3	5745	53.418675712432	0.012913900855
3	5751	53.431589613287	0.010168875632
3	5757	53.441758488919	0.001571299238
3	5759	53.443329788157	0.027126820023
3	5767	53.47045660818	0.02662022217
3	5772	53.49707683035	0.097248449525
3	5779	53.594325279875	0.018169099219
3	5784	53.612494379094	0.006851294678
3	5786	53.619345673772	0.062535943352
3	5795	53.681881617124	0.096949931863
3	5800	53.778831548987	0.042128458212
3	5806	53.820960007199	0.036422231449
3	5811	53.857382238648	0.015984850668
3	5816	53.873367089316	0.033354429578
3	5821	53.906721518894	0.099802441177
3	5826	54.006523960071	0.005158430032
3	5828	54.011682390103	0.053314399481
3	5837	54.064996789584	0.0293493553
3	5842	54.094346144884	0.003878127767
3	5844	54.098224272651	0.001064381429
3	5846	54.09928865408	0.002714856608
3	5851	54.102003510688	0.0731017744
3	5863	54.175105285088	0.021615302166
3	5868	54.196720587254	0.083694982604
3	5874	54.280415569858	0.059422504886
3	5879	54.339838074744	0.014732490488
3	5884	54.354570565232	0.09050467716
3	5890	54.445075242392	0.012457030008
3	5895	54.4575322724	0.052811424795
3	5900	54.510343697195	0.033628267634
3	5905	54.543971964829	0.068555199225
3	5910	54.612527164054	0.095629109988
3	5915	54.708156274042	0.126699044199
3	5923	54.834855318241	0.068753172525
3	5928	54.903608490766	0.029358588265
3	5934	54.932967079031	0.10514737777
3	5943	55.038114456801	0.089379525931
3	5949	55.127493982732	0.042564505633
3	5954	55.170058488365	0.043737646958
3	5959	55.213796135323	0.048161986557
3	5966	55.26195812188	0.01342144564
3	5971	55.27537956752	0.008884610266
3	5976	55.284264177786	0.089492791748
3	5981	55.373756969534	0.032886910434
3	5986	55.406643879968	0.148202581913
3	5993	55.554846461881	0.01770518467
3	5998	55.572551646551	0.027391442847
3	6003	55.599943089398	0.001869721599
3	6005	55.601812810997	0.001035914712
3	6007	55.602848725709	0.088889433401
3	6019	55.69173815911	0.047109781327
3	6025	55.738847940437	0.148604039705
3	6031	55.887451980142	0.128773280036
3	6039	56.016225260178	0.03837147642
3	6044	56.054596736598	0.057658518208
3	6050	56.112255254806	0.064924273612
3	6055	56.177179528418	0.068521415895
3	6061	56.245700944313	0.07830755162
3	6066	56.324008495933	0.084178230475
3	6073	56.408186726408	0.07360758656
3	6078	56.481794312968	0.040033119755
3	6083	56.521827432723	0.004023996475
3	6085	56.525851429198	0.105259815276
3	6096	56.631111244474	0.148974388899
3	6103	56.780085633373	0.007462267503
3	6108	56.787547900876	0.12717778356
3	6114	56.914725684436	0.05360218092
3	6120	56.968327865356	0.080898967359
3	6125	57.049226832715	0.001653794928
3	6127	57.050880627643	0.036079039222
3	6135	57.086959666865	0.050159479816
3	6140	57.137119146681	0.030492202581
3	6145	57.167611349262	0.005565606702
3	6147	57.173176955964	0.021897600328
3	6155	57.195074556292	0.036929319905
3	6161	57.232003876197	0.047614057672
3	6166	57.279617933869	0.034721633897
3	6172	57.314339567766	0.011989260991
3	6177	57.326328828757	0.011901506355
3	6182	57.338230335112	0.107214480591
3	6188	57.445444815703	0.028504514965
3	6194	57.473949330668	0.031243189498
3	6199	57.505192520166	0.012030750911
3	6204	57.517223271077	0.013790250557
3	6209	57.531013521634	0.091666899069
3	6214	57.622680420703	0.032779189531
3	6219	57.655459610234	0.060994165845
3	6226	57.716453776079	0.076519017937
3	6231	57.792972794016	0.08064679482
3	6237	57.873619588836	0.005859999715
3	6239	57.879479588551	0.048882288326
3	6247	57.928361876877	0.103790371715
3	6253	58.032152248592	0.096292422555
3	6260	58.128444671147	0.139259880225
3	6267	58.267704551372	0.025251338529
3	6272	58.292955889901	0.023001380644
3	6277	58.315957270545	0.209714458661
3	6284	58.525671729206	0.008304213523
3	6289	58.533975942729	0.031910612301
3	6295	58.56588655503	0.039276683254
3	6301	58.605163238284	0.023691585078
3	6306	58.628854823362	0.00723092252
3	6308	58.636085745882	0.022616424946
3	6316	58.658702170828	0.030468313543
3	6322	58.689170484371	0.030262676966
3	6327	58.719433161337	0.070716982396
3	6334	58.790150143733	0.053904017445
3	6339	58.844054161178	0.009010059782
3	6344	58.85306422096	0.03976276767
3	6349	58.89282698863	0.064064485195
3	6354	58.956891473825	0.065333236781
3	6359	59.022224710606	0.014968647268
3	6364	59.037193357874	0.042493267
3	6369	59.079686624874	0.067741171706
3	6374	59.14742779658	0.079144998904
3	6379	59.226572795484	0.052638863376
3	6385	59.27921165886	0.014130035486
3	6390	59.293341694346	0.056841039292
3	6395	59.350182733638	0.007833938437
3	6400	59.358016672075	0.043146264756
3	6405	59.401162936831	0.297798039867
3	6412	59.698960976698	0.014668279448
3	6417	59.713629256146	0.072969783919
3	6422	59.786599040065	0.003483734602
3	6424	59.790082774667	0.069452242167
3	6432	59.859535016834	0.032673596473
3	6437	59.892208613307	0.130364630651
3	6443	60.022573243958	0.0208371261
3	6449	60.043410370058	0.090893477422
3	6454	60.13430384748	0.074054027993
3	6461	60.208357875473	0.062767981103
3	6467	60.271125856576	0.04588968492
3	6472	60.317015541496	0.007424782255
3	6477	60.324440323751	0.017984723421
3	6483	60.342425047172	0.081234745683
3	6489	60.423659792855	0.096492961717
3	6495	60.520152754572	0.01942569901
3	6500	60.539578453582	0.038067468711
3	6506	60.577645922293	0.044856250729
3	6512	60.622502173022	0.141650633395
3	6518	60.764152806417	0.036631368817
3	6523	60.800784175234	0.058045069736
3	6529	60.85882924497	0.125920618916
3	6538	60.984749863886	0.119490975146
3	6545	61.104240839032	0.005867998403
3	6547	61.110108837435	0.10361328715
3	6557	61.213722124585	0.021229991631
3	6562	61.234952116216	0.002949429999
3	6564	61.237901546215	0.371450901075
3	6574	61.60935244729	0.150581897735
3	6580	61.759934345025	0.024677297633
3	6586	61.784611642658	0.005872168879
3	6588	61.790483811537	0.061924415257
3	6597	61.852408226794	0.023315886583
3	6602	61.875724113377	0.065111636343
3	6607	61.94083574972	0.026523053851
3	6612	61.967358803571	0.159629244671
3	6620	62.126988048242	0.029134514941
3	6625	62.156122563183	0.024471965171
3	6630	62.180594528354	0.021481428094
3	6636	62.202075956448	0.043737819614
3	6641	62.245813776062	0.010825542793
3	6646	62.256639318855	0.020679683948
3	6651	62.277319002803	0.002106914966
3	6653	62.279425917769	0.119759741046
3	6661	62.399185658815	0.062701271125
3	6667	62.46188692994	0.001791060026
3	6669	62.463677989966	0.120987463181
3	6679	62.584665453147	0.010574175223
3	6684	62.59523962837	0.005956244859
3	6686	62.601195873229	0.030984870987
3	6694	62.632180744216	0.017776551202
3	6699	62.649957295418	0.012242019863
3	6704	62.662199315281	0.060124699622
3	6709	62.722324014903	0.021067365139
3	6714	62.743391380042	0.005399144838
3	6716	62.74879052488	0.077395534189
3	6725	62.826186059069	0.030052653317
3	6730	62.856238712386	0.01748603264
3	6735	62.873724745026	0.041947918848
3	6741	62.915672663874	0.014356782033
3	6746	62.930029445907	0.074805109269
3	6752	63.004834555176	0.021022744426
3	6757	63.025857299602	0.00798813767
3	6759	63.033845437272	0.013563243022
3	6767	63.047408680294	0.029203961568
3	6772	63.076612641862	0.001421588832
3	6774	63.078034230694	0.077215540438
3	6782	63.155249771132	0.057625066752
3	6787	63.212874837884	0.010540117526
3	6792	63.22341495541	0.008524626593
3	6794	63.231939582003	0.005147717084
3	6799	63.237087299087	0.002435204373
3	6801	63.23952250346	0.001366499523
3	6806	63.240889002983	0.014149783888
3	6811	63.255038786871	0.002257357321
3	6813	63.257296144192	0.007607182727
3	6818	63.264903326919	0.094134264077
3	6833	63.359037590996	0.069178338197
3	6839	63.428215929193	0.043765662186
3	6845	63.471981591379	0.101812007144
3	6852	63.573793598523	0.018900447406
3	6857	63.592694045929	0.031898351688
3	6862	63.624592397617	0.023024097024
3	6867	63.647616494641	0.057891816044
3	6872	63.705508310685	0.038985394205
3	6877	63.74449370489	0.031629735814
3	6882	63.776123440704	0.081456092663
3	6888	63.857579533367	0.055375750445
3	6894	63.912955283812	0.002823029031
3	6897	63.915778312843	0.055941420143
3	6905	63.971719732986	0.148819045062
3	6912	64.120538778048	0.00993082425
3	6917	64.130469602298	0.095099368391
3	6922	64.225568970689	0.014531468609
3	6927	64.240100439298	0.004769145664
3	6929	64.244869584962	0.241791454086
3	6939	64.486661039048	0.046524209739
3	6945	64.533185248787	0.050736521537
3	6950	64.583921770324	0.089665570135
3	6955	64.673587340459	0.022479347615
3	6960	64.696066688074	0.034401732224
3	6965	64.730468420298	0.013564335293
3	6970	64.744032755591	0.219907238387
3	6976	64.963939993978	0.029727667139
3	6981	64.993667661117	0.007861558834
3	6983	65.001529219951	0.084751008392
3	6991	65.086280228343	0.042787555522
3	6996	65.129067783865	0.039330382071
3	7002	65.168398165936	0.003151522469
3	7004	65.171549688405	0.093852894222
3	7012	65.265402582627	0.012701423156
3	7017	65.278104005783	0.020235459028
3	7022	65.298339464811	0.047937425177
3	7028	65.346276889988	0.005356362202
3	7030	65.35163325219	0.015999567017
3	7038	65.367632819207	0.056628391153
3	7045	65.42426121036	0.07910601783
3	7050	65.50336722819	0.010496153141
3	7055	65.513863381331	0.012932352214
3	7060	65.526795733545	0.027726797228
3	7065	65.554522530773	0.027855536022
3	7070	65.582378066795	0.004038951616
3	7072	65.586417018411	0.003119950092
3	7074	65.589536968503	0.0595900877
3	7086	65.649127056203	0.002082291226
3	7088	65.651209347429	0.068498153519
3	7096	65.719707500948	0.030422082376
3	7101	65.750129583324	0.000687227498
3	7103	65.750816810822	0.011302120765
3	7108	65.762118931587	0.03402895217
3	7117	65.796147883757	0.025384785977
3	7122	65.821532669734	0.021252002595
3	7127	65.842784672329	0.077353132523
3	7132	65.920137804852	0.052047681585
3	7137	65.972185486437	0.039410128287
3	7142	66.011595614724	0.190077959271
3	7148	66.201673573995	0.166033790158
3	7154	66.367707364153	0.026119542291
3	7159	66.393826906444	0.021439982239
3	7164	66.415266888683	0.013136033934
3	7169	66.428402922617	0.079035894928
3	7175	66.507438817545	0.091505052603
3	7180	66.598943870148	0.020556205354
3	7185	66.619500075502	0.049045290657
3	7193	66.668545366159	0.100066378873
3	7200	66.768611745032	0.035192572722
3	7207	66.803804317754	0.104361913683
3	7212	66.908166231437	0.026975858886
3	7217	66.935142090323	0.010404192041
3	7222	66.945546282364	0.015086369046
3	7227	66.96063265141	0.047794003295
3	7233	67.008426654705	0.080115026656
3	7238	67.088541681361	0.062040198971
3	7244	67.150581880332	0.028124356187
3	7249	67.178706236519	0.034114351077
3	7254	67.212820587596	0.025044081665
3	7259	67.237864669261	0.010448020612
3	7264	67.248312689873	0.019334240416
3	7269	67.267646930289	0.176928666113
3	7276	67.444575596402	0.083981418245
3	7282	67.528557014647	0.009538914101
3	7287	67.538095928748	0.01877891708
3	7292	67.556874845828	0.016970245043
3	7297	67.573845090871	0.048331819068
3	7302	67.622176909939	0.020029769941
3	7307	67.64220667988	0.090169195432
3	7312	67.732375875312	0.029609162191
3	7317	67.761985037503	0.023410466223
3	7322	67.785395503726	0.031299915225
3	7328	67.816695418951	0.00304663117
3	7330	67.819742050121	0.046800467027
3	7338	67.866542517148	0.049104013311
3	7343	67.915646530459	0.026024099232
3	7348	67.941670629691	0.023003921199
3	7353	67.96467455089	0.049259209123
3	7358	68.013933760013	0.014432630117
3	7363	68.02836639013	0.032546471136
3	7368	68.060912861266	0.002717992132
3	7370	68.063630853398	0.011083507392
3	7375	68.07471436079	0.008990660113
3	7380	68.083705020903	0.040028823919
3	7389	68.123733844822	0.04142847571
3	7396	68.165162320532	0.103986840913
3	7401	68.269149161445	0.091789036019
3	7407	68.360938197464	0.017373693342
3	7412	68.378311890806	0.027930832215
3	7417	68.406242723021	0.002188299936
3	7419	68.408431022957	0.093450010429
3	7427	68.501881033386	0.140202596407
3	7433	68.642083629793	0.10965206934
3	7438	68.751735699133	0.055369005322
3	7443	68.807104704455	0.054481194169
3	7449	68.861585898624	0.037320400597
3	7454	68.898906299221	0.013577937205
3	7459	68.912484236426	0.097727038865
3	7464	69.010211275291	0.015181635636
3	7469	69.025392910927	0.013050021952
3	7474	69.038442932879	0.029938633726
3	7479	69.068381566605	0.039844415362
3	7484	69.108225981967	0.02050632265
3	7489	69.128732304617	0.059229806265
3	7495	69.187962110882	0.012552696063
3	7500	69.200514806945	0.031607655006
3	7505	69.232122461951	0.080527466624
3	7511	69.312649928575	0.019384980998
3	7516	69.332034909573	0.152970819225
3	7523	69.485005728798	0.049627148785
3	7528	69.534632877583	0.056393463433
3	7534	69.591026341016	0.033054197734
3	7539	69.62408053875	0.037719431572
3	7545	69.661799970322	0.091345705865
3	7550	69.753145676187	0.038628416587
3	7556	69.791774092774	0.020936890788
3	7562	69.812710983562	0.006421878368
3	7564	69.81913286193	0.199892170753
3	7572	70.019025032683	0.169066206372
3	7578	70.188091239055	0.068875749265
3	7583	70.25696698832	0.13258583582
3	7590	70.38955282414	0.001331611929
3	7592	70.390884436069	0.064844323952
3	7601	70.455728760021	0.003599139907
3	7603	70.459327899928	0.021634501596
3	7611	70.480962401524	0.019410364707
3	7616	70.500372766231	0.104969894923
3	7621	70.605342661154	0.032508837205
3	7627	70.637851498359	0.020386859981
3	7633	70.65823835834	0.147525587885
3	7640	70.805763946225	0.014839931193
3	7645	70.820603877418	0.021183621196
3	7650	70.841787498614	0.012526734352
3	7655	70.854314232966	0.001778132697
3	7657	70.856092365663	0.024515592076
3	7665	70.880607957739	0.013945789372
3	7670	70.894553747111	0.025219965378
3	7675	70.919773712489	0.009012054866
3	7680	70.928785767355	0.053838986792
3	7686	70.982624754147	0.059806212325
3	7692	71.042430966472	0.042465729846
3	7697	71.084896696318	0.045534547838
3	7703	71.130431244156	0.002650057028
3	7705	71.133081301184	0.008299535563
3	7710	71.141380836747	0.059179158344
3	7719	71.200559995091	0.059727786689
3	7724	71.26028778178	0.001927671862
3	7726	71.262215453642	0.068351603278
3	7734	71.33056705692	0.008811500862
3	7740	71.339378557782	0.110942362581
3	7745	71.450320920363	0.076845473075
3	7750	71.527166393438	0.011864904415
3	7755	71.539031297853	0.080324087757
3	7764	71.61935538561	0.030535335214
3	7769	71.649890720824	0.043123311299
3	7775	71.693014032123	0.037661351949
3	7780	71.730675384072	0.024098925283
3	7786	71.754774309355	0.023159581359
3	7791	71.777933890714	0.014215792818
3	7796	71.792149683532	0.064176122264
3	7801	71.856325805796	0.048833544812
3	7807	71.905159350608	0.037254382201
3	7812	71.942413732809	0.02206762505
3	7817	71.964481357859	0.054297040491
3	7822	72.01877839835	0.067432872389
3	7827	72.086211270739	0.060941650633
3	7832	72.147152921372	0.038764319237
3	7840	72.185917240609	0.018056511968
3	7845	72.203973752577	0.117400886936
3	7852	72.321374639513	0.008846982749
3	7857	72.330221622262	0.061308767965
3	7862	72.391530390227	0.034364250635
3	7868	72.425894640862	0.001943254638
3	7870	72.4278378955	0.092930965235
3	7878	72.520768860735	0.016509828942
3	7883	72.537278689677	0.003479706809
3	7885	72.540758396486	0.088725668883
3	7894	72.629484065369	0.037317136963
3	7899	72.666801202332	0.064441868767
3	7904	72.731243071099	0.065203025299
3	7910	72.796446096398	0.02266075489
3	7916	72.819106851288	0.065452358142
3	7921	72.88455920943	0.008120849423
3	7926	72.892680058853	0.037386144743
3	7931	72.930066203596	0.097055587792
3	7938	73.027121791388	0.024724906282
3	7944	73.05184669767	0.099812151717
3	7949	73.151658849387	0.061476574309
3	7954	73.213135423696	0.014574104823
3	7959	73.227709528519	0.069415815655
3	7964	73.297125344174	0.008415361366
3	7969	73.30554070554	0.023812640016
3	7975	73.329353345556	0.011473619329
3	7980	73.340826964885	0.026776981816
3	7986	73.367603946701	0.043946559335
3	7992	73.411550506036	0.036761775067
3	7998	73.448312281103	0.050360395259
3	8003	73.498672676362	0.009302603689
3	8008	73.507975280051	0.044692532547
3	8013	73.552667812598	0.033622766238
3	8018	73.586290578836	0.005394564073
3	8020	73.591685142909	0.049901768489
3	8029	73.641586911398	0.031266395905
3	8035	73.672853307303	0.010925745135
3	8040	73.683779052438	0.038601736673
3	8045	73.722380789111	0.004132319406
3	8047	73.726513108517	0.010838765176
3	8052	73.737351873693	0.035295526449
3	8060	73.772647400142	0.001709698055
3	8062	73.774357098197	0.088100499921
3	8071	73.862457598118	0.014619042771
3	8077	73.877076640889	0.013004662853
3	8082	73.890081303742	0.00488697899
3	8084	73.894968282732	0.016059451556
3	8092	73.911027734288	0.061245014032
3	8098	73.97227274832	0.021027001655
3	8104	73.993299749975	0.191443444429
3	8111	74.184743194404	0.011487904896
3	8116	74.1962310993	0.016637562369
3	8121	74.212868661669	0.130215824889
3	8127	74.343084486558	0.071765727067
3	8132	74.414850213625	0.003235837721
3	8134	74.418086051346	0.044307353226
3	8142	74.462393404572	0.088476232848
3	8148	74.55086963742	0.077048554927
3	8154	74.627918192347	0.017122960231
3	8159	74.645041152578	0.047518599843
3	8164	74.692559752421	0.003606095946
3	8166	74.696165848367	0.082542674954
3	8175	74.778708523321	0.029451035857
3	8181	74.808159559178	0.020962145711
3	8186	74.829121704889	0.010205114255
3	8191	74.839326819144	0.000662744339
3	8193	74.839989563483	0.000820479895
3	8195	74.840810043378	0.029331945549
3	8209	74.870141988927	0.119292929065
3	8215	74.989434917992	0.075893633199
3	8220	75.065328551191	0.039254237816
3	8226	75.104582789007	0.023678154597
3	8231	75.128260943604	0.077771500629
3	8236	75.206032444233	0.003030285269
3	8238	75.209062729502	0.081626970825
3	8247	75.290689700327	0.039979674607
3	8252	75.330669374934	0.029683133441
3	8257	75.360352508375	0.017839630877
3	8262	75.378192139252	0.025338744417
3	8267	75.403530883669	0.168840733387
3	8273	75.572371617056	0.061709325207
3	8279	75.634080942263	0.008287538881
3	8284	75.642368481144	0.019353057612
3	8289	75.661721538756	0.002186411865
3	8291	75.663907950621	0.112994433524
3	8300	75.776902384145	0.048994830233
3	8305	75.825897214378	0.005033807459
3	8307	75.830931021837	0.008879391873
3	8313	75.83981041371	0.051373455004
3	8321	75.891183868714	0.011548402635
3	8326	75.902732271349	0.073375383341
3	8333	75.97610765469	0.044522530791
3	8338	76.020630185481	0.032882474898
3	8343	76.053512660379	0.017775736984
3	8348	76.071288397363	0.039496323236
3	8353	76.110784720599	0.21472497108
3	8359	76.325509691679	0.042527943745
3	8365	76.368037635424	0.044489013245
3	8370	76.412526648669	0.078513726078
3	8377	76.491040374747	0.014506282111
3	8382	76.505546656858	0.032566782691
3	8388	76.538113439549	0.001156041119
3	8390	76.539269480668	0.030096222472
3	8398	76.56936570314	0.018232866751
3	8403	76.587598569891	0.016941621351
3	8408	76.604540191242	0.013774650786
3	8413	76.618314842028	0.009106907039
3	8418	76.627421749067	0.025122681605
3	8423	76.652544430672	0.01297099924
3	8428	76.665515429912	0.005268566113
3	8430	76.670783996025	0.077630551056
3	8439	76.748414547081	0.017195719532
3	8444	76.765610266613	0.037355298864
3	8449	76.802965565477	0.083581217266
3	8454	76.886546782743	0.0363193195
3	8460	76.922866102243	0.017474164717
3	8465	76.94034026696	0.086241906959
3	8470	77.026582173919	0.103937219403
3	8476	77.130519393322	0.046551159038
3	8482	77.17707055236	0.034614329607
3	8487	77.211684881967	0.095800949497
3	8493	77.307485831464	0.022977256646
3	8498	77.33046308811	0.050658533156
3	8503	77.381121621266	0.004441943761
3	8505	77.385563565027	0.042898193615
3	8513	77.428461758642	0.019200152029
3	8519	77.447661910671	0.074202807522
3	8526	77.521864718193	0.031602061583
3	8531	77.553466779776	0.026012311082
3	8536	77.579479090858	0.005712222431
3	8538	77.585191313289	0.13343220113
3	8549	77.718623514419	0.106172660909
3	8555	77.824796175328	0.029711541586
3	8561	77.854507716914	0.032308021447
3	8568	77.886815738361	0.028438441685
3	8573	77.915254180046	0.069730822328
3	8579	77.984985002374	0.107142534109
3	8585	78.092127536483	0.013599754025
3	8590	78.105727290508	0.074095091324
3	8596	78.179822381832	0.043836678342
3	8601	78.223659060174	0.027437632593
3	8606	78.251096692767	0.010692356467
3	8611	78.261789049234	0.013792415458
3	8616	78.275581464692	0.001692936782
3	8618	78.277274401474	0.029264284612
3	8626	78.306538686086	0.076838850804
3	8632	78.38337753689	0.037571491601
3	8637	78.420949028491	0.129344632939
3	8644	78.55029366143	0.03773054996
3	8650	78.58802421139	0.042603013991
3	8656	78.630627225381	0.056452120467
3	8663	78.687079345848	0.143685742335
3	8670	78.830765088183	0.001465396204
3	8672	78.832230484387	0.011521657131
3	8677	78.843752141518	0.007350345876
3	8682	78.851102487394	0.034483181802
3	8690	78.885585669196	0.007467653192
3	8692	78.893053322388	0.015980473528
3	8700	78.909033795916	0.063985991061
3	8705	78.973019786977	0.002873906252
3	8707	78.975893693229	0.027669501142
3	8715	79.003563194371	0.03884921649
3	8721	79.042412410861	0.090764974292
3	8728	79.133177385153	0.163239057581
3	8735	79.296416442734	0.020664264943
3	8740	79.317080707677	0.008845565938
3	8745	79.325926273615	0.016934810703
3	8750	79.342861084318	0.004645889819
3	8752	79.347506974137	0.063573370255
3	8760	79.411080344392	0.038619172411
3	8765	79.449699516803	0.016049016301
3	8770	79.465748533104	0.003102139479
3	8772	79.468850672583	0.011759301481
3	8777	79.480609974064	0.00899517646
3	8785	79.489605150524	0.006092991778
3	8787	79.495698142302	0.028321183402
3	8795	79.524019325704	0.031749032421
3	8800	79.555768358125	0.034565714963
3	8807	79.590334073088	0.0603212855
3	8812	79.650655358588	0.053231554981
3	8818	79.703886913569	0.032398915058
3	8823	79.736285828627	0.004956683936
3	8825	79.741242512563	0.048791932384
3	8834	79.790034444947	0.082147921608
3	8839	79.872182366555	0.014728635043
3	8844	79.886911001598	0.123479105472
3	8849	80.01039010707	0.072074577336
3	8854	80.082464684406	0.001173950455
3	8856	80.083638634861	0.003304805645
3	8858	80.086943440506	0.106988781025
3	8869	80.193932221531	0.027303664564
3	8874	80.221235886095	0.016950732563
3	8879	80.238186618658	0.065849053129
3	8885	80.304035671787	0.048394929183
3	8892	80.35243060097	0.147623317409
3	8899	80.500053918379	0.048709711085
[...]
19	22431	209.93209097554	2.3993532958879
19	22719	212.331444271428	2.7963276414207
19	23061	215.127771912849	4.4031999064496
19	23613	219.530971819299	0.17137639141834
19	23625	219.702348210717	2.4535440556417
19	23933	222.155892266359	0.61156487552672
19	24002	222.767457141886	1.5710960335093
19	24172	224.338553175395	3.5864474319999
19	24621	227.925000607395	2.0528367750364
19	24880	229.977837382431	0.33689004552529
19	24914	230.314727427956	0.75710223103627
19	24967	231.071829658992	0.97337710651419
19	25056	232.045206765506	1.8619659797569
19	25308	233.907172745263	0.25453007863353
19	25351	234.161702823897	0.99843708640375
19	25428	235.160139910301	2.3634567098542
19	25707	237.523596620155	11.540511660216
19	27092	249.064108280371	0.176238873158
19	27110	249.240347153529	3.4703353652049
19	27483	252.710682518734	1.1808838557696
19	27601	253.891566374504	1.9666951991199
19	27793	255.858261573624	0.45225110352811
19	27857	256.310512677152	1.9260517488165
19	28077	258.236564425969	7.2261117017041
19	28800	265.462676127673	3.0038437518612
19	29087	268.466519879534	0.054331062197386
19	29093	268.520850941731	2.7189727227044
19	29364	271.239823664435	7.2666251959927
19	30100	278.506448860428	0.23434288379094
19	30125	278.740791744219	1.3613950913814
19	30229	280.1021868356	2.4482532637699
19	30482	282.55044009937	0.6180808777503
19	30547	283.16852097712	0.2089013340299
19	30565	283.37742231115	0.64244429597807
19	30629	284.019866607128	3.548645597709
19	31059	287.568512204837	0.56490829488232
19	31122	288.133420499719	1.6095352685811
19	31277	289.7429557683	1.6505090025376
19	31411	291.393464770838	0.56417814907031
19	31434	291.957642919908	0.5355314684499
19	31496	292.493174388358	0.65086924257661
19	31587	293.144043630935	0.02927403158393
19	31589	293.173317662519	2.6087553034815
19	31888	295.782072966	5.1287218829942
19	32441	300.910794848994	0.096042949223111
19	32461	301.006837798217	6.0959702039554
19	33055	307.102808002172	1.8770554220094
19	33260	308.979863424181	3.5653055059747
19	33628	312.545168930156	0.658603470538
19	33703	313.203772400694	0.10155165586678
19	33722	313.305324056561	7.1616953883262
19	34463	320.467019444887	0.096975986065842
19	34494	320.563995430953	2.1147419809015
19	34736	322.678737411855	1.458105685592
19	34882	324.136843097447	1.8034430080303
19	35070	325.940286105477	1.1015915018775
19	35189	327.041877607354	1.3674112090964
19	35300	328.40928881645	1.0106720442869
19	35425	329.419960860737	2.8733331895018
19	35722	332.293294050239	1.4108178188772
19	35900	333.704111869116	0.34522580444022
19	35931	334.049337673556	2.1699727024057
19	36156	336.219310375962	2.5882349191638
19	36375	338.807545295126	0.47536293631219
19	36451	339.282908231438	0.76389636326551
19	36543	340.046804594704	0.82606717062778
19	36602	340.872871765332	0.57938390070491
19	36649	341.452255666037	1.0879083482808
19	36775	342.540164014318	4.4548757886336
19	37226	346.995039802952	1.5309181212423
19	37374	348.525957924194	0.48002643845334
19	37404	349.005984362647	0.76538946655122
19	37482	349.771373829198	0.045164887293284
19	37488	349.816538716491	0.024861775037397
19	37494	349.841400491528	0.42081591449947
19	37531	350.262216406027	0.64977218810381
19	37590	350.911988594131	5.0931336852577
19	38165	356.005122279389	2.1002213658858
19	38429	358.105343645275	0.73496333341643
19	38519	358.840306978691	3.2081094606967
19	38825	362.048416439388	6.4356258468208
19	39436	368.484042286209	0.89566324100718
19	39531	369.379705527216	4.7420147805288
19	39983	374.121720307745	1.9371592803718
19	40240	376.058879588117	0.95770327638747
19	40315	377.016582864504	8.6446195795517
19	41169	385.661202444056	0.41063694555894
19	41231	386.071839389615	1.7211003394347
19	41383	387.79293972905	0.21219888731932
19	41401	388.005138616369	4.042565970125
19	41852	392.047704586494	0.17733139449079
19	41868	392.225035980985	3.5064452077248
19	42192	395.73148118871	2.5503752559458
19	42456	398.281856444656	2.6827071826453
20	1490	13.632699294862	1.8095843461212
20	1657	15.442283640983	2.1209691930532
20	1851	17.563252834036	1.3850818664098
20	1949	18.948334700446	2.9362900255009
20	2352	21.884624725947	0.02259548911623
20	2359	21.907220215063	0.13516973947467
20	2367	22.042389954538	1.6039038046233
20	2500	23.646293759161	1.4841513414783
20	2667	25.130445100639	7.9018119195697
20	3510	33.032257020209	3.6142650387045
20	3897	36.646522058913	0.95379078820879
20	4002	37.600312847122	1.1040709122918
20	4127	38.704383759414	2.3186681770901
20	4428	41.023051936504	2.593311452795
20	4685	43.616363389299	0.12007606377651
20	4704	43.736439453076	0.60691992192291
20	4755	44.343359374999	1.7452899395701
20	4930	46.088649314569	2.7627605751057
20	5215	48.851409889675	2.8429765063581
20	5535	51.694386396033	1.8329947638455
20	5777	53.527381159878	2.3977021323712
20	6036	55.925083292249	2.0596589656902
20	6252	57.984742257939	3.6353160806786
20	6579	61.620058338618	0.57750663238232
20	6635	62.197564971	3.1905416658306
20	7043	65.388106636831	0.4043494246865
20	7116	65.792456061518	2.0094770181533
20	7327	67.801933079671	2.6360302559823
20	7600	70.437963335653	0.2607655317349
20	7638	70.698728867388	0.045884321843471
20	7639	70.744613189231	0.23844255411119
20	7688	70.983055743342	2.8301508784611
20	8070	73.813206621803	0.061619165987811
20	8076	73.874825787791	0.37171468209424
20	8126	74.246540469885	0.23649413895714
20	8147	74.483034608842	0.25312388931677
20	8174	74.736158498159	1.0981095415528
20	8312	75.834268039712	0.10821989546299
20	8331	75.942487935175	0.021207286968146
20	8332	75.963695222143	1.68231014133
20	8546	77.646005363473	1.1295728006662
20	8668	78.775578164139	0.24481352294104
20	8720	79.02039168708	0.73989073025336
20	8833	79.760282417333	3.738830180081
20	9181	83.499112597414	6.5037888274084
20	9811	90.002901424822	0.52493237053694
20	9889	90.527833795359	2.6857255235829
20	10218	93.213559318942	2.0660643946282
20	10418	95.27962371357	0.95526086180471
20	10536	96.234884575375	0.042947201027192
20	10537	96.277831776402	0.186229770082
20	10556	96.464061546484	0.016299823032464
20	10557	96.480361369516	3.4802543290276
20	10929	99.960615698544	0.35395151282597
20	10953	100.31456721137	1.2298263264642
20	11109	101.544393537834	1.1683342315397
20	11263	102.712727769374	1.3734110468929
20	11371	104.086138816267	1.282325269043
20	11471	105.36846408531	6.4126347221334
20	12148	111.781098807443	1.5025508306009
20	12324	113.283649638044	0.64924151678081
20	12435	113.932891154825	0.045374772251219
20	12439	113.978265927076	2.3036096335612
20	12694	116.281875560637	5.9874051211113
20	13423	122.269280681748	1.6643559739387
20	13571	123.933636655687	2.4759428409066
20	13806	126.409579496594	0.51491410272017
20	13848	126.924493599314	0.61039714672972
20	13905	127.534890746044	0.601436198657
20	13960	128.136326944701	0.57237373798732
20	14027	128.708700682688	5.2975752060513
20	14544	134.006275888739	1.1706994969905
20	14628	135.17697538573	0.01170828518285
20	14629	135.188683670913	1.3044377712275
20	14741	136.49312144214	1.399020555976
20	14873	137.892141998116	0.54087468357083
20	14932	138.433016681687	0.34733942421914
20	14976	138.780356105906	0.17478193560041
20	14989	138.955138041506	0.34654841551475
20	15018	139.301686457021	0.73764563368783
20	15120	140.039332090709	1.7634771562045
20	15306	141.802809246913	1.6301810412801
20	15502	143.432990288193	2.9340132904638
20	15839	146.367003578657	0.16885019222805
20	15862	146.535853770885	4.5195701731758
20	16293	151.055423944061	1.505214915587
20	16455	152.560638859648	2.1978205011462
20	16682	154.758459360794	0.075035466486818
20	16688	154.833494827281	0.13678814998973
20	16696	154.970282977271	1.0005950111552
20	16771	155.970877988426	0.14661397526688
20	16803	156.117491963693	0.31646640199316
20	16845	156.433958365686	3.4349347737881
20	17196	159.868893139474	4.3557067040284
20	17673	164.224599843502	0.77031171289865
20	17755	164.994911556401	0.30729327817571
20	17784	165.302204834577	0.49054062919622
20	17822	165.792745463773	3.1091730309728
20	18156	168.901918494746	0.46012448187174
20	18192	169.362042976618	6.4966886746174
20	18836	175.858731651235	0.86198321599448
20	18930	176.720714867229	3.4336707820682
20	19309	180.154385649297	0.68440150315884
20	19392	180.838787152456	0.30374114426698
20	19429	181.142528296723	0.68919724297513
20	19520	181.831725539698	2.7960966978534
20	19754	184.627822237551	1.6615804154127
20	20018	186.289402652964	0.1190125059503
20	20039	186.408415158914	1.7296860353505
20	20215	188.138101194265	0.45863925245958
20	20257	188.596740446725	1.8418485345889
20	20463	190.438588981314	2.3268844397634
20	20673	192.765473421077	0.99999576856429
20	20773	193.765469189641	2.6219598502804
20	21083	196.387429039921	4.672705432956
20	21508	201.060134472877	4.9039243912631
20	22022	205.96405886414	1.1802983023159
20	22122	207.144357166456	1.4516345967193
20	22306	208.595991763175	1.1291615667331
20	22416	209.725153329908	1.1587674903642
20	22556	210.883920820272	1.02781551263
20	22665	211.911736332902	0.25113305606688
20	22692	212.162869388969	5.1972430231061
20	23312	217.360112412075	0.71581431223077
20	23402	218.075926724306	0.2039144501918
20	23439	218.279841174498	5.9060827410365
20	24159	224.185923915534	1.9527859762227
20	24393	226.138709891757	0.76152520025621
20	24528	226.900235092013	0.90720164002965
20	24612	227.807436732043	0.10306687910246
20	24618	227.910503611145	0.085883866914178
20	24637	227.996387478059	0.64154508158414
20	24693	228.637932559643	1.1094517398995
20	24859	229.747384299542	5.8296996641314
20	25457	235.577083963673	2.2665985609987
20	25739	237.843682524672	0.31773357667315
20	25772	238.161416101345	1.5269976426999
20	25934	239.688413744045	0.83131381505905
20	26032	240.519727559104	2.1408063903271
20	26305	242.660533949431	3.1361797553381
20	26631	245.796713704769	2.3923222821528
20	26918	248.189035986922	5.5037499006508
20	27583	253.692785887573	0.94880442483032
20	27665	254.641590312403	1.3915486571286
20	27820	256.033138969532	1.8466721592098
20	28007	257.879811128742	1.6449084005774
20	28185	259.524719529319	0.27210824366729
20	28238	259.796827772986	9.4578914219403
20	29157	269.254719194926	4.6339351611247
20	29655	273.888654356051	1.5846557115541
20	29794	275.473310067605	1.8425291459345
20	29996	277.31583921354	1.2468598859677
20	30106	278.562699099508	4.0347496740972
20	30487	282.597448773605	0.70591712541531
20	30558	283.30336589902	0.010589678435355
20	30559	283.313955577455	2.475328960541
20	30823	285.789284537996	0.65451078723285
20	30890	286.443795325229	3.6532531071041
20	31298	290.097048432333	0.13556397512272
20	31318	290.232612407456	3.1081349971587
20	31607	293.340747404615	0.38247555245192
20	31659	293.723222957067	1.1359350524843
20	31778	294.859158009551	7.8457943547458
20	32642	302.704952364297	2.0368474729712
20	32840	304.741799837268	0.54524127531499
20	32912	305.287041112583	0.43450731873474
20	32931	305.721548431318	0.88999869131629
20	33012	306.611547122634	1.8870291073341
20	33211	308.498576229968	2.3630165413381
20	33467	310.861592771306	7.8804304884717
20	34340	318.742023259778	1.3455911476046
20	34444	320.087614407383	0.80804459195391
20	34520	320.895658999337	0.0093238315565101
20	34521	320.904982830894	0.50664630459225
20	34584	321.411629135486	0.9182742922806
20	34689	322.329903427767	1.9381223513338
20	34889	324.268025779101	1.1423514131865
20	34989	325.410377192288	0.57793366410479
20	35071	325.988310856393	0.31964240493753
20	35103	326.307953261331	1.3333883403786
20	35237	327.64134160171	1.8838324388301
20	35439	329.52517404054	1.346256372274
20	35599	330.871430412814	0.69164761468992
20	35639	331.563078027504	1.4046827538445
20	35798	332.967760781349	1.2834679842421
20	35948	334.251228765591	0.53719757692555
20	36000	334.788426342517	0.35175043750669
20	36036	335.140176780024	6.5704320143705
20	36686	341.710608794395	1.1656454878576
20	36797	342.876254282253	1.5803750434667
20	36960	344.45662932572	5.7027406802869
20	37524	350.159370006007	0.50605858114851
20	37580	350.665428587156	1.7886963993508
20	37787	352.454124986507	0.31835843036318
20	37810	352.77248341687	8.0506121809926
20	38703	360.823095597863	6.7211315754355
20	39350	367.544227173299	3.7070057027779
20	39734	371.251232876077	10.029738166201
20	40745	381.280971042278	1.6441670118099
20	40909	382.925138054088	0.76977058941692
20	40934	383.694908643505	1.0245510919264
20	41060	384.719459735431	0.55280489439452
20	41121	385.272264629826	1.6005038603611
20	41312	386.872768490187	1.8825273769054
20	41489	388.755295867092	7.2635334673182
20	42232	396.01882933441	1.0436492926184
20	42315	397.062478627028	2.7501127907001
20	42665	399.812591417728	1.2649262833804
21	1665	15.527262747846	0.67509183241398
21	1746	16.20235458026	0.94207326107882
21	1813	17.144427841339	2.7217333249161
21	2070	19.866161166255	0.85370800836589
21	2169	20.719869174621	2.1944469887249
21	2441	22.914316163346	7.0541143422475
21	3190	29.968430505594	0.5653088902741
21	3261	30.533739395868	0.44599353160232
21	3320	30.97973292747	0.86655085889804
21	3374	31.846283786368	0.20532175437416
21	3395	32.051605540742	3.1017876655707
21	3761	35.153393206313	0.59190178085511
21	3819	35.745294987168	3.2739893193712
21	4166	39.019284306539	0.85078676924021
21	4284	39.870071075779	1.8112531177126
21	4492	41.681324193492	11.740581345971
21	5747	53.421905539463	0.39724643385259
21	5805	53.819151973316	3.8727737258042
21	6224	57.69192569912	2.6349239760363
21	6479	60.326849675156	0.58751513296306
21	6535	60.914364808119	6.2329109492955
21	7243	67.147275757414	4.4559943611074
21	7760	71.603270118521	0.0083129364384272
21	7761	71.611583054959	1.3732688230917
21	7937	72.984851878051	2.6215074051791
21	8278	75.60635928323	2.26629769286
21	8567	77.87265697609	1.6968146177517
21	8805	79.569471593842	0.017739851068292
21	8806	79.58721144491	5.5477670645584
21	9323	85.134978509468	0.42010284368902
21	9357	85.555081353157	0.79867409389403
21	9432	86.353755447051	0.8617030854724
21	9537	87.215458532523	1.5568417160583
21	9686	88.772300248581	5.8780248250931
21	10372	94.650325073674	1.965173410358
21	10568	96.615498484032	2.8106706180246
21	10888	99.426169102057	1.1273630149733
21	10986	100.55353211703	1.1437290723938
21	11150	101.697261189424	1.063637441812
21	11269	102.760898631236	2.6941927037256
21	11477	105.455091334962	1.5413149116247
21	11618	106.996406246587	7.5525839227959
21	12531	114.548990169383	3.8473794650843
21	12957	118.396369634467	4.0337469715032
21	13433	122.43011660597	2.8781393960739
21	13681	125.308256002044	1.1747147154191
21	13810	126.482970717463	6.4012201993812
21	14423	132.884190916844	3.2556002243263
21	14710	136.13979114117	3.3008708947169
21	15022	139.440662035887	2.3478442683738
21	15305	141.788506304261	0.37789671301444
21	15329	142.166403017275	5.0327321764476
21	15958	147.199135193723	3.9203470492537
21	16306	151.119482242977	1.6319864342222
21	16483	152.751468677199	1.750531753146
21	16645	154.502000430345	1.0455735798194
21	16735	155.547574010164	2.711196745019
21	17049	158.258770755183	2.9860785449799
21	17356	161.244849300163	0.33259078623039
21	17396	161.577440086393	2.7343360217115
21	17674	164.311776108104	4.623020131613
21	18162	168.934796239717	0.85884815765116
21	18231	169.793644397368	0.51918872256092
21	18297	170.312833119929	3.4423511767628
21	18599	173.755184296692	2.4673439854807
21	18887	176.222528282173	1.021935652223
21	19004	177.244463934396	1.6977816222535
21	19218	178.942245556649	0.099930255627041
21	19229	179.042175812276	4.354425428918
21	19644	183.396601241194	4.4722636279257
21	20174	187.86886486912	10.989846858081
21	21295	198.858711727201	1.5240318579731
21	21422	200.382743585174	0.5741235957888
21	21488	200.956867180963	2.0767310319448
21	21754	203.033598212908	1.3773116267297
21	21871	204.410909839638	0.25859356317489
21	21890	204.669503402813	4.0798751152041
21	22343	208.749378518017	4.6278683057223
21	22840	213.377246823739	0.12759515584341
21	22860	213.504841979582	2.3024659350202
21	23125	215.807307914602	3.4176609385609
21	23590	219.224968853163	2.2493947979936
21	23864	221.474363651157	0.26886984668947
21	23899	221.743233497846	4.7097270123708
21	24450	226.452960510217	0.40316912489726
21	24524	226.856129635114	2.6530988399291
21	24815	229.509228475043	1.012191756997
21	24929	230.52142023204	3.8117100703484
21	25355	234.333130302388	0.067911302421259
21	25358	234.401041604809	1.3958335843709
21	25484	235.79687518918	0.15813112194194
21	25491	235.955006311122	5.1709857305683
21	26114	241.12599204169	1.9992428801927
21	26371	243.125234921883	0.050389868221542
21	26382	243.175624790105	0.1229896343594
21	26395	243.298614424464	1.2344434117721
21	26512	244.533057836236	0.53362881896457
21	26572	245.066686655201	2.7797650710875
21	26883	247.846451726288	0.28284021385089
21	26915	248.129291940139	2.1161117561768
21	27228	250.245403696316	0.47091572209952
21	27275	250.716319418416	0.0018647286269752
21	27278	250.718184147043	1.8127408704653
21	27462	252.530925017508	3.3631577921288
21	27804	255.894082809637	2.6287163424896
21	28101	258.522799152127	1.2763993339215
21	28239	259.799198486049	2.2018993675119
21	28459	262.001097853561	4.7686269683533
21	28934	266.769724821914	1.6322829041083
21	29081	268.402007726022	0.42613225048605
21	29115	268.828139976508	1.6846261754133
21	29249	270.512766151921	0.16310052232032
21	29280	270.675866674241	3.0609815351409
21	29637	273.736848209382	0.68993132732197
21	29729	274.426779536704	0.19343932597654
21	29735	274.620218862681	2.6704826981373
21	29994	277.290701560818	1.4305213463014
21	30124	278.721222907119	0.23823181053947
21	30133	278.959454717658	0.67610077603182
21	30186	279.63555549369	2.3417776350773
21	30426	281.977333128767	0.34590602000375
21	30457	282.323239148771	2.8578344121602
21	30763	285.181073560931	1.9678900522202
21	31013	287.148963613151	0.40076743042446
21	31055	287.549731043575	2.2548077659165
21	31279	289.804538809491	13.193949408991
21	32657	302.998488218482	0.40636558262108
21	32693	303.404853801103	0.1344865094686
21	32699	303.539340310572	1.9113004975575
21	32913	305.45064080813	1.9731124565362
21	33097	307.423753264666	0.062083673817263
21	33110	307.485836938483	2.6468595937811
21	33373	310.132696532264	0.46008688628621
21	33417	310.59278341855	5.0801671369722
21	34009	315.672950555522	3.5766171420973
21	34373	319.249567697619	3.1967441126249
21	34705	322.446311810244	2.9361676102169
21	34988	325.382479420461	1.0578790273338
21	35121	326.440358447795	1.698307593866
21	35289	328.138666041661	1.3541849229825
21	35428	329.492850964643	0.46232142653057
21	35512	329.955172391174	1.7965819488148
21	35662	331.751754339989	1.8097725375006
21	35874	333.56152687749	7.6432643750267
21	36627	341.204791252517	1.6166478292378
21	36794	342.821439081755	0.090052272533372
21	36798	342.911491354288	0.80713008454052
21	36865	343.718621438829	0.73732481847229
21	36959	344.455946257301	4.9087160589604
21	37435	349.364662316261	0.025861618139467
21	37436	349.3905239344	1.3140743787036
21	37581	350.704598313104	0.043852717501841
21	37585	350.748451030606	0.18640460192321
21	37591	350.934855632529	0.10159414527999
21	37592	351.036449777809	4.1110406462083
21	38075	355.147490424017	0.42996935097931
21	38120	355.577459774996	1.5259481081475
21	38289	357.103407883143	0.38454827592496
21	38343	357.487956159068	7.772638057825
21	39124	365.260594216893	1.6642462197435
21	39287	366.924840436636	0.70767283391655
21	39361	367.632513270553	3.2788080861968
21	39675	370.91132135675	0.476649628616
21	39746	371.387970985366	0.1300794680634
21	39758	371.518050453429	2.1196433057309
21	39934	373.63769375916	0.45245678160268
21	39977	374.090150540763	4.2701371126679
21	40449	378.360287653431	2.0707974460458
21	40679	380.431085099477	7.0153797529098
21	41356	387.446464852387	2.4385964334311
21	41599	389.885061285818	2.0359692209197
21	41836	391.921030506738	3.8439761209981
21	42198	395.765006627736	1.5283565248661
21	42350	397.293363152602	0.032304045798404
21	42351	397.3256671984	2.7196408597838

