file 6598859 1614185348                                         
version 2
run Nonmonitoring-exponential-277-20210224-17:49:07-26819
attr configname Nonmonitoring-exponential
attr datetime 20210224-17:49:07
attr experiment Nonmonitoring-exponential
attr inifile aerocom.ini
attr iterationvars $0=13
attr iterationvarsf 13-
attr measurement $0=13
attr network Aerocom
attr processid 26819
attr repetition 77
attr replication #77
attr resultdir results
attr runnumber 277
attr seedset 77
param **.t 2s
param **.k 13ms
param **.X 0.05s
param **.m 1s
param **.tDistribution "\"exponential\""
param **.operationMode 1
param **.s "70 byte"
param **.dimPoolMax 10000
param **.dimPoolMin 8000
param **.nDL 16
param **.nA 1
param **.DLMaxCapacity 0
param **.trasmitting false

vector 0 Aerocom.aircraft[0].linkSelector responseTime:vector ETV
attr "" ""
attr source computeResponseTime
vector 1 Aerocom.aircraft[0].linkSelector waitingTime:vector ETV
attr "" ""
attr source computeWaitingTime
vector 2 Aerocom.aircraft[0].linkSelector queueLength:vector ETV
attr "" ""
attr source computeQueueLength
vector 3 Aerocom.aircraft[0].dataLink[13] actualCapacity:vector ETV
attr "" ""
attr source computeActualCapacity
vector 4 Aerocom.aircraft[0].linkSelector serviceTime:vector ETV
attr "" ""
attr source computeServiceTime
vector 5 Aerocom.aircraft[0].packetGenerator arrivalTime:vector ETV
attr "" ""
attr source computeArrivalTime
vector 6 Aerocom.aircraft[0].dataLink[9] tDistribution:vector ETV
attr "" ""
attr source computeTDistribution
vector 7 Aerocom.aircraft[0].dataLink[14] tDistribution:vector ETV
attr "" ""
attr source computeTDistribution
vector 8 Aerocom.aircraft[0].dataLink[5] tDistribution:vector ETV
attr "" ""
attr source computeTDistribution
vector 9 Aerocom.aircraft[0].dataLink[10] tDistribution:vector ETV
attr "" ""
attr source computeTDistribution
vector 10 Aerocom.aircraft[0].dataLink[1] tDistribution:vector ETV
attr "" ""
attr source computeTDistribution
vector 11 Aerocom.aircraft[0].dataLink[13] tDistribution:vector ETV
attr "" ""
attr source computeTDistribution
vector 12 Aerocom.aircraft[0].dataLink[12] tDistribution:vector ETV
attr "" ""
attr source computeTDistribution
vector 13 Aerocom.aircraft[0].dataLink[15] tDistribution:vector ETV
attr "" ""
attr source computeTDistribution
vector 14 Aerocom.aircraft[0].dataLink[8] tDistribution:vector ETV
attr "" ""
attr source computeTDistribution
vector 15 Aerocom.aircraft[0].dataLink[4] tDistribution:vector ETV
attr "" ""
attr source computeTDistribution
vector 16 Aerocom.aircraft[0].dataLink[6] tDistribution:vector ETV
attr "" ""
attr source computeTDistribution
vector 17 Aerocom.aircraft[0].dataLink[2] tDistribution:vector ETV
attr "" ""
attr source computeTDistribution
vector 18 Aerocom.aircraft[0].dataLink[3] tDistribution:vector ETV
attr "" ""
attr source computeTDistribution
vector 19 Aerocom.aircraft[0].dataLink[0] tDistribution:vector ETV
attr "" ""
attr source computeTDistribution
vector 20 Aerocom.aircraft[0].dataLink[11] tDistribution:vector ETV
attr "" ""
attr source computeTDistribution
vector 21 Aerocom.aircraft[0].dataLink[7] tDistribution:vector ETV
attr "" ""
attr source computeTDistribution
0	3134 1198681 4021 157286 10.000698164259 399.988413286044 30057 0.007006305675 0.08207453257 411.08214220223 7.7493729535793
1	1201815 1041671 4021 157285 10.000698164259 399.980951394988 30056 0 0.07361020367 178.37948140127 3.1540354668712
2	2243486 811354 4021 157285 10.000698164259 399.980951394988 30056 0 8 13962 33422
3	3054840 901522 4021 157285 10.000698164259 399.980951394988 30056 8015 9994 272532535 2478099297297
4	3956362 1318459 4021 157285 10.000698164259 399.980951394988 30056 0.0070042025215129 0.0087336244541485 232.68489001944 1.8065133418455
5	5274821 1198322 4033 157284 10.043196756945 399.980951394988 30053 4.00461e-07 0.119074797483 389.96827074969 10.056036371489
6	6473143 8632 4058 155588 10.104413070761 395.878908785699 209 0.019540029212882 12.8296970324 391.07997387239 1373.7920563208
7	6481775 7614 4059 156391 10.104696739699 397.829220958631 185 0.0038917922415854 13.333245722028 394.45558756354 1757.6018336178
8	6489389 7315 4060 156622 10.110854497582 398.311817265975 177 0.01114401071591 9.1342988037593 391.99520424194 1556.1367560784
9	6496704 8034 4291 155709 10.797043722888 396.207895426101 195 0.010311270308272 12.252477438382 390.59848514641 1515.9601656824
10	6504738 7400 4362 156671 11.036309241821 398.445020184604 175 0.0059911422906989 11.635643777322 399.0443547201 1758.4895301012
11	6512138 7762 4409 157085 11.140617763654 399.482021013977 184 0.042925900017843 8.5208924280133 390.33398495526 1446.5049900636
12	6519900 8204 4446 157272 11.20224789197 399.936731940928 194 0.030992150000519 12.194785712694 391.56000937096 1534.9462952271
13	6528104 7736 4471 156948 11.263610887743 399.202476604928 183 0.0044592608474907 14.316530807507 390.31224146533 1731.1411720571
14	6535840 7699 4567 157141 11.531749533543 399.669157259672 182 0.0055476131285272 10.838044031069 388.90275936571 1587.4799164401
15	6543539 8151 4631 157268 11.675967784612 399.932905256824 192 0.0024439363415274 9.9784014947239 389.65542958314 1561.3250830298
16	6551690 8931 4662 157074 11.817852553883 399.436084338873 211 0.0047265059210597 9.5266125226421 390.84291979369 1367.5272146558
17	6560621 7985 4926 156478 12.778282004527 398.009457905629 189 0.010160369855917 11.224813437562 387.37496237752 1579.3206770693
18	6568606 7537 5049 156605 13.119588431067 398.280974090749 178 0.0099324030616856 16.525667971352 388.00041722183 1774.4212241909
19	6576143 6339 5212 157236 13.58949134306 399.853025306733 150 0.005179730527805 16.399466175456 386.60454242576 1973.5976210939
20	6582482 8734 6478 156039 17.219786975303 396.953895880491 207 0.0011570680083753 10.281505877851 387.06274659172 1403.8421226728
21	6591216 7642 6590 157280 17.585734691709 399.945454667727 180 0.0015418403596216 11.521011531237 383.99807877994 1694.668720218

