version 2
run Nonmonitoring-exponential-599-20210224-17:49:35-27108
attr configname Nonmonitoring-exponential
attr datetime 20210224-17:49:35
attr experiment Nonmonitoring-exponential
attr inifile aerocom.ini
attr iterationvars $0=50
attr iterationvarsf 50-
attr measurement $0=50
attr network Aerocom
attr processid 27108
attr repetition 99
attr replication #99
attr resultdir results
attr runnumber 599
attr seedset 99
param **.t 2s
param **.k 50ms
param **.X 0.05s
param **.m 1s
param **.tDistribution "\"exponential\""
param **.operationMode 1
param **.s "70 byte"
param **.dimPoolMax 10000
param **.dimPoolMin 8000
param **.nDL 16
param **.nA 1
param **.DLMaxCapacity 0
param **.trasmitting false

vector 0 Aerocom.aircraft[0].packetGenerator arrivalTime:vector ETV
attr "" ""
attr source computeArrivalTime
vector 1 Aerocom.aircraft[0].linkSelector waitingTime:vector ETV
attr "" ""
attr source computeWaitingTime
vector 2 Aerocom.aircraft[0].linkSelector queueLength:vector ETV
attr "" ""
attr source computeQueueLength
vector 3 Aerocom.aircraft[0].dataLink[1] actualCapacity:vector ETV
attr "" ""
attr source computeActualCapacity
vector 4 Aerocom.aircraft[0].linkSelector serviceTime:vector ETV
attr "" ""
attr source computeServiceTime
vector 5 Aerocom.aircraft[0].linkSelector responseTime:vector ETV
attr "" ""
attr source computeResponseTime
vector 6 Aerocom.aircraft[0].dataLink[9] tDistribution:vector ETV
attr "" ""
attr source computeTDistribution
vector 7 Aerocom.aircraft[0].dataLink[1] tDistribution:vector ETV
attr "" ""
attr source computeTDistribution
vector 8 Aerocom.aircraft[0].dataLink[7] tDistribution:vector ETV
attr "" ""
attr source computeTDistribution
vector 9 Aerocom.aircraft[0].dataLink[2] tDistribution:vector ETV
attr "" ""
attr source computeTDistribution
vector 10 Aerocom.aircraft[0].dataLink[11] tDistribution:vector ETV
attr "" ""
attr source computeTDistribution
vector 11 Aerocom.aircraft[0].dataLink[5] tDistribution:vector ETV
attr "" ""
attr source computeTDistribution
vector 12 Aerocom.aircraft[0].dataLink[6] tDistribution:vector ETV
attr "" ""
attr source computeTDistribution
vector 13 Aerocom.aircraft[0].dataLink[4] tDistribution:vector ETV
attr "" ""
attr source computeTDistribution
vector 14 Aerocom.aircraft[0].dataLink[3] tDistribution:vector ETV
attr "" ""
attr source computeTDistribution
vector 15 Aerocom.aircraft[0].dataLink[13] tDistribution:vector ETV
attr "" ""
attr source computeTDistribution
vector 16 Aerocom.aircraft[0].dataLink[15] tDistribution:vector ETV
attr "" ""
attr source computeTDistribution
vector 17 Aerocom.aircraft[0].dataLink[14] tDistribution:vector ETV
attr "" ""
attr source computeTDistribution
vector 18 Aerocom.aircraft[0].dataLink[10] tDistribution:vector ETV
attr "" ""
attr source computeTDistribution
vector 19 Aerocom.aircraft[0].dataLink[8] tDistribution:vector ETV
attr "" ""
attr source computeTDistribution
vector 20 Aerocom.aircraft[0].dataLink[12] tDistribution:vector ETV
attr "" ""
attr source computeTDistribution
vector 21 Aerocom.aircraft[0].dataLink[0] tDistribution:vector ETV
attr "" ""
attr source computeTDistribution
0	1055	10.027945381064	0.023041643005
0	1060	10.050987024069	0.046211417527
0	1065	10.097198441596	0.031332567381
0	1070	10.128531008977	0.020787025929
0	1076	10.149318034906	0.026359792056
0	1081	10.175677826962	0.028010421568
0	1086	10.20368824853	0.005267271267
0	1088	10.208955519797	0.006311133381
0	1093	10.215266653178	0.080089698457
0	1101	10.295356351635	0.035058085395
0	1106	10.33041443703	0.045010575635
0	1111	10.375425012665	0.024915160853
0	1116	10.400340173518	0.05815533364
0	1121	10.458495507158	0.077465835278
0	1127	10.535961342436	0.059403946146
0	1133	10.595365288582	0.139398549603
0	1138	10.734763838185	0.015126916542
0	1143	10.749890754727	0.010760950814
0	1148	10.760651705541	0.064868938216
0	1153	10.825520643757	0.032238477092
0	1158	10.857759120849	0.097026859658
0	1163	10.954785980507	0.0187226693
0	1169	10.973508649807	0.081914293508
0	1175	11.055422943315	0.023559655372
0	1180	11.078982598687	0.09223187783
0	1187	11.171214476517	0.033106789412
0	1193	11.204321265929	0.012130064909
0	1198	11.216451330838	0.089310954665
0	1205	11.305762285503	0.099504402646
0	1210	11.405266688149	0.430861809746
0	1217	11.836128497895	0.040230402367
0	1222	11.876358900262	0.058657932867
0	1227	11.935016833129	0.017622745981
0	1232	11.95263957911	0.027780497846
0	1237	11.980420076956	0.065438266913
0	1242	12.045858343869	0.095247768858
0	1247	12.141106112727	0.038223234776
0	1252	12.179329347503	0.029794585148
0	1257	12.209123932651	0.047089114702
0	1262	12.256213047353	0.09476181584
0	1271	12.350974863193	0.062859156743
0	1276	12.413834019936	0.015641266065
0	1282	12.429475286001	0.02733591202
0	1287	12.456811198021	0.018777703795
0	1292	12.475588901816	0.022797859397
0	1297	12.498386761213	0.00712872331
0	1299	12.505515484523	0.013833348941
0	1307	12.519348833464	0.085201903769
0	1314	12.604550737233	0.002040373496
0	1316	12.606591110729	0.039904535532
0	1325	12.646495646261	0.006324874801
0	1327	12.652820521062	0.057954191314
0	1336	12.710774712376	0.151016726555
0	1344	12.861791438931	0.058583426803
0	1350	12.920374865734	0.022232177938
0	1355	12.942607043672	0.005421691147
0	1357	12.948028734819	0.074433874007
0	1367	13.022462608826	0.090220917877
0	1374	13.112683526703	0.014092326715
0	1379	13.126775853418	0.119212823415
0	1386	13.245988676833	0.005423900683
0	1388	13.251412577516	0.009561114314
0	1393	13.26097369183	0.150784724194
0	1402	13.411758416024	0.014255253858
0	1408	13.426013669882	0.124750291089
0	1414	13.550763960971	0.115732743594
0	1421	13.666496704565	0.075021825151
0	1426	13.741518529716	0.009032202733
0	1432	13.750550732449	0.056598178819
0	1438	13.807148911268	0.150751624857
0	1444	13.957900536125	0.0150560929
0	1449	13.972956629025	0.026545983601
0	1454	13.999502612626	0.070978672814
0	1459	14.07048128544	0.005617481862
0	1461	14.076098767302	0.085428006574
0	1469	14.161526773876	0.015321961473
0	1475	14.176848735349	0.009712711929
0	1480	14.186561447278	0.025259909492
0	1485	14.21182135677	0.04661082029
0	1490	14.25843217706	0.027345883365
0	1495	14.285778060425	0.02554216253
0	1500	14.311320222955	0.033135555179
0	1506	14.344455778134	0.005462816026
0	1508	14.34991859416	0.005334065343
0	1513	14.355252659503	0.025335607168
0	1521	14.380588266671	0.068893491261
0	1526	14.449481757932	0.013520310293
0	1531	14.463002068225	0.008847456038
0	1536	14.471849524263	0.014784205954
0	1541	14.486633730217	0.023720168374
0	1546	14.510353898591	0.02914968986
0	1551	14.539503588451	0.012357066908
0	1556	14.551860655359	0.005052080594
0	1558	14.556912735953	0.075546589028
0	1566	14.632459324981	0.046238883228
0	1572	14.678698208209	0.001056505056
0	1574	14.679754713265	0.010192546696
0	1579	14.689947259961	0.02979705467
0	1587	14.719744314631	0.166655711544
0	1593	14.886400026175	0.030715907837
0	1598	14.917115934012	0.019696403481
0	1603	14.936812337493	0.033337404803
0	1608	14.970149742296	0.003206668568
0	1610	14.973356410864	0.017537598898
0	1618	14.990894009762	0.012781363993
0	1623	15.003675373755	0.001233231735
0	1625	15.00490860549	0.057653574477
0	1633	15.062562179967	0.011804877516
0	1638	15.074367057483	0.038617518593
0	1643	15.112984576076	0.073374248237
0	1649	15.186358824313	0.147471927106
0	1655	15.333830751419	0.051937481102
0	1661	15.385768232521	0.006073399033
0	1663	15.391841631554	0.133017683695
0	1672	15.524859315249	0.139743364202
0	1677	15.664602679451	0.024540908476
0	1682	15.689143587927	0.023860734634
0	1687	15.713004322561	0.188362098236
0	1692	15.901366420797	0.013880379013
0	1697	15.91524679981	0.020029953308
0	1702	15.935276753118	0.022671820674
0	1708	15.957948573792	0.1376133205
0	1715	16.095561894292	0.02931534091
0	1720	16.124877235202	0.026284656144
0	1725	16.151161891346	0.024398046282
0	1731	16.175559937628	0.01882262542
0	1736	16.194382563048	0.021229135921
0	1741	16.215611698969	0.096820510588
0	1747	16.312432209557	0.019356872421
0	1753	16.331789081978	0.019893862839
0	1758	16.351682944817	0.00818080369
0	1760	16.359863748507	0.015418184726
0	1768	16.375281933233	0.013683619734
0	1773	16.388965552967	0.043651325724
0	1778	16.432616878691	0.006203401599
0	1780	16.43882028029	0.02343118322
0	1788	16.46225146351	0.033730563226
0	1793	16.495982026736	0.012478612076
0	1798	16.508460638812	0.089921524057
0	1804	16.598382162869	0.183853861629
0	1809	16.782236024498	0.067666214168
0	1815	16.849902238666	0.043353117928
0	1820	16.893255356594	0.02176099875
0	1825	16.915016355344	0.009258795831
0	1830	16.924275151175	0.125859102913
0	1837	17.050134254088	0.017006316325
0	1842	17.067140570413	0.014890565824
0	1847	17.082031136237	0.056429389088
0	1852	17.138460525325	0.024813124083
0	1857	17.163273649408	0.000464723863
0	1859	17.163738373271	0.03346260061
0	1867	17.197200973881	0.031224399544
0	1872	17.228425373425	0.005871058195
0	1874	17.23429643162	0.022447542095
0	1882	17.256743973715	0.058623431199
0	1887	17.315367404914	0.023201186256
0	1892	17.33856859117	0.091111900946
0	1897	17.429680492116	0.006506048195
0	1899	17.436186540311	0.094047314702
0	1907	17.530233855013	0.002211854151
0	1909	17.532445709164	0.013554970452
0	1914	17.546000679616	0.051269180171
0	1922	17.597269859787	0.018014149182
0	1927	17.615284008969	0.01691445019
0	1932	17.632198459159	0.164738689901
0	1937	17.79693714906	0.042684729408
0	1942	17.839621878468	0.034532081482
0	1947	17.87415395995	0.032986689073
0	1952	17.907140649023	0.151898259952
0	1960	18.059038908975	0.004682958191
0	1962	18.063721867166	0.00496455419
0	1967	18.068686421356	0.014803204654
0	1972	18.08348962601	0.013460566743
0	1980	18.096950192753	0.084944124237
0	1986	18.18189431699	0.050730719415
0	1991	18.232625036405	0.134225970938
0	1997	18.366851007343	0.000976776663
0	1999	18.367827784006	0.0588753094
0	2008	18.426703093406	0.020296498545
0	2013	18.446999591951	0.087210814834
0	2019	18.534210406785	0.02636388843
0	2024	18.560574295215	0.004128449808
0	2026	18.564702745023	0.070774835245
0	2036	18.635477580268	0.021186438109
0	2041	18.656664018377	0.036630555009
0	2046	18.693294573386	0.076063637194
0	2051	18.76935821058	0.041685430581
0	2056	18.811043641161	0.025002847813
0	2061	18.836046488974	0.003111651683
0	2063	18.839158140657	0.055660251552
0	2072	18.894818392209	0.049666879137
0	2078	18.944485271346	0.111818475022
0	2083	19.056303746368	0.024161077382
0	2089	19.08046482375	0.001580763306
0	2091	19.082045587056	0.025089363036
0	2100	19.107134950092	0.025639878499
0	2105	19.132774828591	0.010392384204
0	2110	19.143167212795	0.011233534745
0	2115	19.15440074754	0.035745781949
0	2121	19.190146529489	0.007847227594
0	2123	19.197993757083	0.046791603514
0	2131	19.244785360597	0.014134904647
0	2137	19.258920265244	0.012276117556
0	2142	19.2711963828	0.020518773956
0	2147	19.291715156756	0.017922166002
0	2152	19.309637322758	0.132857817517
0	2157	19.442495140275	0.072502569169
0	2163	19.514997709444	0.124961974525
0	2169	19.639959683969	0.050789854456
0	2175	19.690749538425	0.094952780773
0	2181	19.785702319198	0.220711755869
0	2191	20.006414075067	0.051314081715
0	2196	20.057728156782	0.018910077332
0	2201	20.076638234114	0.065315960579
0	2206	20.141954194693	0.017400195968
0	2211	20.159354390661	0.024753187704
0	2216	20.184107578365	0.078229250043
0	2224	20.262336828408	0.092918619789
0	2230	20.355255448197	0.002060703108
0	2232	20.357316151305	0.129862737721
0	2241	20.487178889026	0.054908403459
0	2246	20.542087292485	0.040556908249
0	2251	20.582644200734	0.104457854216
0	2256	20.68710205495	0.012460037761
0	2261	20.699562092711	0.058767400098
0	2266	20.758329492809	0.090740842564
0	2271	20.849070335373	0.051949793078
0	2276	20.901020128451	0.021268306175
0	2281	20.922288434626	0.091691533669
0	2287	21.013979968295	0.014850252975
0	2292	21.02883022127	0.10446631594
0	2298	21.13329653721	0.016239331814
0	2303	21.149535869024	0.037201761088
0	2309	21.186737630112	0.179700590756
0	2315	21.366438220868	0.115404591522
0	2321	21.48184281239	0.011903107658
0	2326	21.493745920048	0.040215056885
0	2331	21.533960976933	0.046374921293
0	2337	21.580335898226	0.207535111934
0	2346	21.78787101016	0.012080336203
0	2351	21.799951346363	0.02172313631
0	2356	21.821674482673	0.011225208393
0	2361	21.832899691066	0.030871608367
0	2366	21.863771299433	0.036179835418
0	2372	21.899951134851	0.16367706062
0	2377	22.063628195471	0.064767376314
0	2382	22.128395571785	0.013375410145
0	2387	22.14177098193	0.028322427174
0	2392	22.170093409104	0.000161496777
0	2394	22.170254905881	0.15803593473
0	2403	22.328290840611	0.050427408418
0	2408	22.378718249029	0.016431323582
0	2413	22.395149572611	0.093881392126
0	2418	22.489030964737	0.003924089144
0	2420	22.492955053881	0.289745958641
0	2432	22.782701012522	0.010356816792
0	2437	22.793057829314	0.048403190691
0	2444	22.841461020005	0.123846366999
0	2450	22.965307387004	0.015167061098
0	2455	22.980474448102	0.015157593727
0	2461	22.995632041829	0.011744987689
0	2466	23.007377029518	0.09508416934
0	2472	23.102461198858	0.025983955191
0	2477	23.128445154049	0.05241058527
0	2482	23.180855739319	0.023246048804
0	2489	23.204101788123	0.220795510914
0	2497	23.424897299037	0.062648769878
0	2503	23.487546068915	0.002284023904
0	2505	23.489830092819	0.036202058329
0	2513	23.526032151148	0.043967134347
0	2518	23.569999285495	0.021881909678
0	2523	23.591881195173	0.195808605448
0	2530	23.787689800621	0.009884484215
0	2535	23.797574284836	0.01116146573
0	2540	23.808735750566	0.059122852635
0	2545	23.867858603201	0.020124158854
0	2550	23.887982762055	0.086471939132
0	2555	23.974454701187	0.095002964559
0	2560	24.069457665746	0.01508765515
0	2565	24.084545320896	0.09329470146
0	2571	24.177840022356	0.110440714607
0	2577	24.288280736963	0.005731793471
0	2579	24.294012530434	0.018424395227
0	2587	24.312436925661	0.001991640738
0	2589	24.314428566399	0.12929389161
0	2597	24.443722458009	0.07830112049
0	2603	24.522023578499	0.032948137218
0	2608	24.554971715717	0.025215464626
0	2613	24.580187180343	0.079811066978
0	2618	24.659998247321	0.100608603239
0	2625	24.76060685056	0.119950496266
0	2630	24.880557346826	0.006952197893
0	2632	24.887509544719	0.04900034227
0	2640	24.936509886989	0.000435030277
0	2642	24.936944917266	0.065097542615
0	2650	25.002042459881	0.000929929478
0	2652	25.002972389359	0.017971752182
0	2660	25.020944141541	0.033184792607
0	2666	25.054128934148	0.00913152833
0	2671	25.063260462478	0.023473689654
0	2676	25.086734152132	0.017918264803
0	2681	25.104652416935	0.016497664399
0	2686	25.121150081334	0.185490567792
0	2692	25.306640649126	0.166916428765
0	2699	25.473557077891	0.036863713059
0	2704	25.51042079095	0.007340752924
0	2706	25.517761543874	0.002199123628
0	2711	25.519960667502	0.028514823111
0	2719	25.548475490613	0.003693768585
0	2721	25.552169259198	0.023392603808
0	2729	25.575561863006	0.094776519925
0	2735	25.670338382931	1.1805861e-05
0	2737	25.670350188792	0.014079758242
0	2742	25.684429947034	0.001322994354
0	2744	25.685752941388	0.020721655906
0	2755	25.706474597294	0.054721851282
0	2760	25.761196448576	0.02412020836
0	2765	25.785316656936	0.078581201415
0	2771	25.863897858351	0.033243137764
0	2777	25.897140996115	0.123162919018
0	2782	26.020303915133	0.025551181867
0	2787	26.045855097	0.073549716917
0	2793	26.119404813917	0.025163620585
0	2798	26.144568434502	0.114483575441
0	2803	26.259052009943	0.040246670741
0	2808	26.299298680684	0.067941563339
0	2814	26.367240244023	0.00835329498
0	2819	26.375593539003	0.059423842316
0	2824	26.435017381319	0.071600234506
0	2830	26.506617615825	0.049365031824
0	2835	26.555982647649	0.024373794082
0	2840	26.580356441731	0.07003298233
0	2846	26.650389424061	0.047856707948
0	2852	26.698246132009	0.01724167501
0	2858	26.715487807019	0.029225357481
0	2863	26.7447131645	0.077028833229
0	2868	26.821741997729	0.038776199553
0	2873	26.860518197282	0.102480272619
0	2878	26.962998469901	0.020510157119
0	2883	26.98350862702	0.039785732627
0	2888	27.023294359647	0.118489318882
0	2895	27.141783678529	0.057892803581
0	2901	27.19967648211	0.018533615046
0	2906	27.218210097156	0.079779336
0	2912	27.297989433156	0.001941636241
0	2914	27.299931069397	0.002929026999
0	2916	27.302860096396	0.079629849302
0	2927	27.382489945698	0.020797819865
0	2932	27.403287765563	0.03423514485
0	2937	27.437522910413	0.057432807435
0	2944	27.494955717848	0.032311881633
0	2949	27.527267599481	0.017576637957
0	2954	27.544844237438	0.007672271124
0	2956	27.552516508562	0.030624043118
0	2964	27.58314055168	0.135934798969
0	2971	27.719075350649	0.005267296891
0	2973	27.72434264754	0.001614949764
0	2975	27.725957597304	0.017254901831
0	2983	27.743212499135	0.022030234704
0	2991	27.765242733839	0.000439722693
0	2993	27.765682456532	0.055482687839
0	3001	27.821165144371	0.11267355958
0	3008	27.933838703951	0.044155118014
0	3013	27.977993821965	0.014509995539
0	3018	27.992503817504	0.015318506664
0	3023	28.007822324168	0.006580323828
0	3025	28.014402647996	0.134606007721
0	3034	28.149008655717	0.025378412775
0	3040	28.174387068492	0.199225880095
0	3046	28.373612948587	0.055579328392
0	3052	28.429192276979	0.02953172163
0	3057	28.458723998609	0.074884416783
0	3063	28.533608415392	0.035783122467
0	3069	28.569391537859	0.011510004153
0	3074	28.580901542012	0.05657170196
0	3079	28.637473243972	0.012547112235
0	3084	28.650020356207	0.055208088424
0	3089	28.705228444631	0.056049263579
0	3094	28.76127770821	0.012633617773
0	3099	28.773911325983	0.018373980651
0	3104	28.792285306634	0.022399048635
0	3109	28.814684355269	0.08467426266
0	3114	28.899358617929	0.007016129905
0	3116	28.906374747834	0.061956789389
0	3124	28.968331537223	0.050626144965
0	3129	29.018957682188	0.065958121739
0	3134	29.084915803927	0.075921311278
0	3139	29.160837115205	0.01045142396
0	3144	29.171288539165	0.002015161956
0	3146	29.173303701121	0.035450668812
0	3154	29.208754369933	0.094360592387
0	3160	29.30311496232	0.063399780297
0	3166	29.366514742617	0.014646476892
0	3171	29.381161219509	0.020369415594
0	3176	29.401530635103	0.017812237611
0	3181	29.419342872714	0.030775165562
0	3186	29.450118038276	0.030914343857
0	3191	29.481032382133	0.005121133139
0	3193	29.486153515272	0.127021273005
0	3201	29.613174788277	0.177063055689
0	3206	29.790237843966	0.056513477317
0	3211	29.846751321283	0.01014177907
0	3216	29.856893100353	0.082869503017
0	3221	29.93976260337	0.044672496516
0	3226	29.984435099886	0.000129364326
0	3228	29.984564464212	0.028461404408
0	3236	30.01302586862	0.126259424125
0	3243	30.139285292745	0.061903302303
0	3248	30.201188595048	0.005954001733
0	3251	30.207142596781	0.049503504234
0	3259	30.256646101015	0.046938059353
0	3264	30.303584160368	0.048156634729
0	3269	30.351740795097	0.158614099326
0	3275	30.510354894423	0.001964011926
0	3277	30.512318906349	0.136744369388
0	3286	30.649063275737	0.147779461303
0	3293	30.79684273704	0.02019367896
0	3298	30.817036416	0.141477665524
0	3303	30.958514081524	0.006626419892
0	3305	30.965140501416	0.076526305326
0	3313	31.041666806742	0.136836068453
0	3318	31.178502875195	0.0356289586
0	3323	31.214131833795	0.037701357096
0	3328	31.251833190891	0.1391674341
0	3334	31.391000624991	0.076448390655
0	3339	31.467449015646	0.069803435623
0	3345	31.537252451269	0.008355675366
0	3350	31.545608126635	0.067676113338
0	3355	31.613284239973	0.029892917002
0	3360	31.643177156975	0.0092099136
0	3365	31.652387070575	0.029526351574
0	3370	31.681913422149	0.032668015327
0	3375	31.714581437476	0.003769516657
0	3378	31.718350954133	0.142294358463
0	3387	31.860645312596	0.027184616116
0	3393	31.887829928712	0.040873614913
0	3398	31.928703543625	0.030166522386
0	3403	31.958870066011	0.036768394963
0	3409	31.995638460974	0.024941830216
0	3414	32.02058029119	0.040355612448
0	3419	32.060935903638	0.00674001127
0	3421	32.067675914908	0.117516738553
0	3432	32.185192653461	0.142997377857
0	3438	32.328190031318	0.010124474305
0	3443	32.338314505623	0.049091141872
0	3450	32.387405647495	0.007373868331
0	3455	32.394779515826	0.060692367324
0	3461	32.45547188315	0.057253913884
0	3467	32.512725797034	0.00815041108
0	3472	32.520876208114	0.03135748709
0	3478	32.552233695204	0.109384274967
0	3484	32.661617970171	0.114101815504
0	3489	32.775719785675	0.023977085739
0	3495	32.799696871414	0.053479776007
0	3501	32.853176647421	0.016364469578
0	3506	32.869541116999	0.020310635492
0	3513	32.889851752491	0.018633925656
0	3518	32.908485678147	0.003671858332
0	3520	32.912157536479	0.001088313688
0	3522	32.913245850167	0.027094138658
0	3533	32.940339988825	0.011701575041
0	3538	32.952041563866	0.03118446491
0	3543	32.983226028776	0.009181299846
0	3548	32.992407328622	0.006439449388
0	3550	32.99884677801	0.017393143415
0	3558	33.016239921425	0.017159282099
0	3563	33.033399203524	0.0062311106
0	3565	33.039630314124	0.160747229827
0	3574	33.200377543951	0.024967136077
0	3579	33.225344680028	0.020097247451
0	3584	33.245441927479	0.008842953584
0	3589	33.254284881063	0.005833691558
0	3591	33.260118572621	0.039614914857
0	3599	33.299733487478	0.086571710176
0	3605	33.386305197654	0.13259086687
0	3613	33.518896064524	0.000100468831
0	3615	33.518996533355	0.018400927748
0	3623	33.537397461103	0.070049976321
0	3629	33.607447437424	0.036532146306
0	3635	33.64397958373	0.073153694069
0	3640	33.717133277799	0.00099385066
0	3642	33.718127128459	0.311376401989
0	3651	34.029503530448	0.102944781981
0	3656	34.132448312429	0.000952238225
0	3658	34.133400550654	0.044818070262
0	3667	34.178218620916	0.122874457238
0	3672	34.301093078154	0.003230036597
0	3674	34.304323114751	0.037004239141
0	3683	34.341327353892	0.005388867987
0	3685	34.346716221879	0.012954899874
0	3693	34.359671121753	0.070744561323
0	3701	34.430415683076	0.028702941299
0	3706	34.459118624375	0.029369766906
0	3711	34.488488391281	0.014001427046
0	3716	34.502489818327	0.112182574423
0	3722	34.61467239275	0.002223078713
0	3724	34.616895471463	0.011663204968
0	3729	34.628558676431	0.030143869957
0	3737	34.658702546388	0.056438414768
0	3743	34.715140961156	0.107394581522
0	3749	34.822535542678	0.029447679551
0	3754	34.851983222229	0.041141342287
0	3759	34.893124564516	0.038203502556
0	3764	34.931328067072	0.038674151565
0	3770	34.970002218637	0.013263635114
0	3775	34.983265853751	0.157427273849
0	3782	35.1406931276	0.017226180777
0	3787	35.157919308377	0.009778432617
0	3793	35.167697740994	0.04389997129
0	3799	35.211597712284	0.017496930213
0	3804	35.229094642497	0.010844520895
0	3809	35.239939163392	0.002528073596
0	3811	35.242467236988	0.018395098477
0	3819	35.260862335465	0.036438781735
0	3824	35.2973011172	0.01034665977
0	3829	35.30764777697	0.02464897039
0	3834	35.33229674736	0.019327177851
0	3839	35.351623925211	0.022388028585
0	3845	35.374011953796	0.015361844077
0	3850	35.389373797873	0.031077552651
0	3856	35.420451350524	0.095387227943
0	3863	35.515838578467	0.075109737838
0	3869	35.590948316305	0.049310521011
0	3874	35.640258837316	0.019246682572
0	3879	35.659505519888	0.121111168479
0	3886	35.780616688367	0.038602355572
0	3891	35.819219043939	0.015038186599
0	3896	35.834257230538	0.101519591968
0	3901	35.935776822506	0.028349456744
0	3906	35.96412627925	0.028464431809
0	3911	35.992590711059	0.02396708752
0	3916	36.016557798579	0.032896987898
0	3921	36.049454786477	0.000392617233
0	3923	36.04984740371	0.079048083957
0	3932	36.128895487667	0.067264645164
0	3937	36.196160132831	0.058939912218
0	3943	36.255100045049	0.089197233299
0	3949	36.344297278348	0.048966468694
0	3954	36.393263747042	0.009609777904
0	3959	36.402873524946	0.010657018035
0	3964	36.413530542981	0.033391977503
0	3969	36.446922520484	0.057592956177
0	3974	36.504515476661	0.003338172786
0	3976	36.507853649447	0.002831555155
0	3978	36.510685204602	0.079432327851
0	3989	36.590117532453	0.009267521583
0	3994	36.599385054036	0.049970321108
0	3999	36.649355375144	0.163338237491
0	4006	36.812693612635	0.146211793477
0	4013	36.958905406112	0.047193021992
0	4018	37.006098428104	0.009767900915
0	4023	37.015866329019	0.132922499856
0	4028	37.148788828875	0.014337191884
0	4033	37.163126020759	0.162451266003
0	4039	37.325577286762	0.006268776289
0	4041	37.331846063051	0.15598436637
0	4049	37.487830429421	0.008338983983
0	4054	37.496169413404	0.014746419864
0	4060	37.510915833268	0.001932360732
0	4062	37.512848194	0.072378519861
0	4070	37.585226713861	0.070338014481
0	4076	37.655564728342	0.022275761242
0	4081	37.677840489584	0.023823396424
0	4086	37.701663886008	0.021627169543
0	4091	37.723291055551	0.048453839618
0	4096	37.771744895169	0.027390521163
0	4101	37.799135416332	0.015158823305
0	4106	37.814294239637	0.092631940846
0	4112	37.906926180483	0.045134611977
0	4117	37.95206079246	0.069811832235
0	4124	38.021872624695	0.102604265569
0	4130	38.124476890264	0.042514048093
0	4135	38.166990938357	0.049271304301
0	4140	38.216262242658	0.124512234441
0	4148	38.340774477099	0.042746789624
0	4153	38.383521266723	0.102928444875
0	4162	38.486449711598	0.077079271656
0	4168	38.563528983254	0.01622510669
0	4173	38.579754089944	0.01238871489
0	4178	38.592142804834	0.060510436475
0	4185	38.652653241309	0.057241439133
0	4190	38.709894680442	0.16632043259
0	4197	38.876215113032	0.065518040333
0	4203	38.941733153365	0.071762912184
0	4210	39.013496065549	0.064134564015
0	4216	39.077630629564	0.039310205071
0	4222	39.116940834635	0.010347045267
0	4227	39.127287879902	0.004437257242
0	4229	39.131725137144	0.042867183669
0	4238	39.174592320813	0.001887141514
0	4240	39.176479462327	0.030768089094
0	4248	39.207247551421	0.079655772186
0	4254	39.286903323607	0.017536164918
0	4259	39.304439488525	0.025168729436
0	4264	39.329608217961	0.038244838619
0	4269	39.36785305658	0.052786602268
0	4276	39.420639658848	0.025962018356
0	4281	39.446601677204	0.125270148962
0	4288	39.571871826166	0.093754589815
0	4294	39.665626415981	0.109691891519
0	4299	39.7753183075	0.027521321279
0	4304	39.802839628779	0.07123314049
0	4309	39.874072769269	0.007410706646
0	4311	39.881483475915	0.022206406592
0	4319	39.903689882507	0.137510277412
0	4325	40.041200159919	0.048052614662
0	4330	40.089252774581	0.025837750685
0	4335	40.115090525266	0.010499256304
0	4340	40.12558978157	0.013929892375
0	4345	40.139519673945	0.017954850225
0	4350	40.15747452417	0.121238994769
0	4356	40.278713518939	0.073732478171
0	4364	40.35244599711	0.029691227596
0	4369	40.382137224706	0.005059333925
0	4371	40.387196558631	0.079995700468
0	4379	40.467192259099	0.006436793155
0	4381	40.473629052254	0.031358516833
0	4390	40.504987569087	0.045246264742
0	4395	40.550233833829	0.008977205842
0	4400	40.559211039671	0.014723941061
0	4405	40.573934980732	0.186276354528
0	4412	40.76021133526	0.009983991098
0	4417	40.770195326358	0.027036418108
0	4422	40.797231744466	0.034372037929
0	4427	40.831603782395	0.003446166764
0	4429	40.835049949159	0.110126318781
0	4438	40.94517626794	0.115025904357
0	4443	41.060202172297	0.074385655542
0	4449	41.134587827839	0.017141381742
0	4454	41.151729209581	0.002907072778
0	4456	41.154636282359	0.006328006108
0	4461	41.160964288467	0.005895920963
0	4466	41.16686020943	0.026643612137
0	4474	41.193503821567	0.000366676404
0	4476	41.193870497971	0.002614187637
0	4478	41.196484685608	0.072015197571
0	4490	41.268499883179	0.035816280291
0	4497	41.30431616347	0.026549669168
0	4502	41.330865832638	0.088493815124
0	4508	41.419359647762	0.087644432712
0	4515	41.507004080474	0.016790810822
0	4520	41.523794891296	0.001508241501
0	4522	41.525303132797	0.052411691939
0	4530	41.577714824736	0.057092731529
0	4535	41.634807556265	0.046419633517
0	4541	41.681227189782	0.053158720809
0	4546	41.734385910591	0.019870020838
0	4551	41.754255931429	0.020281639787
0	4556	41.774537571216	0.119858075159
0	4562	41.894395646375	0.011212994201
0	4567	41.905608640576	0.037066139118
0	4573	41.942674779694	0.260670423664
0	4578	42.203345203358	0.08396823476
0	4585	42.287313438118	0.024873017794
0	4590	42.312186455912	0.003752156118
0	4592	42.31593861203	0.006396342743
0	4597	42.322334954773	0.051450848101
0	4607	42.373785802874	0.018875669178
0	4612	42.392661472052	0.030299836048
0	4617	42.4229613081	0.146988594455
0	4625	42.569949902555	0.035779692241
0	4630	42.605729594796	0.074649372479
0	4635	42.680378967275	0.05869101523
0	4640	42.739069982505	0.033305790647
0	4646	42.772375773152	0.08554483568
0	4653	42.857920608832	0.003899841191
0	4655	42.861820450023	0.07000583385
0	4663	42.931826283873	0.014614358925
0	4668	42.946440642798	0.022026914652
0	4673	42.96846755745	0.019877013679
0	4679	42.988344571129	0.067959988794
0	4686	43.056304559923	0.022847582748
0	4691	43.079152142671	0.117339780612
0	4697	43.196491923283	0.041564818898
0	4702	43.238056742181	0.040317510565
0	4707	43.278374252746	0.002046529646
0	4709	43.280420782392	0.134936726628
0	4718	43.41535750902	0.006914972994
0	4720	43.422272482014	0.091605996946
0	4728	43.51387847896	0.087701350703
0	4733	43.601579829663	0.047594030943
0	4738	43.649173860606	0.064092572054
0	4744	43.71326643266	0.043997040626
0	4749	43.757263473286	0.027518827623
0	4754	43.784782300909	0.056576005217
0	4761	43.841358306126	0.039262361265
0	4766	43.880620667391	0.065178012296
0	4772	43.945798679687	0.0245452828
0	4777	43.970343962487	0.002687135944
0	4779	43.973031098431	0.004600535436
0	4781	43.977631633867	0.121352210187
0	4792	44.098983844054	0.031420073784
0	4798	44.130403917838	0.098376422138
0	4803	44.228780339976	0.042240436275
0	4809	44.271020776251	0.154688316964
0	4814	44.425709093215	0.065353125277
0	4819	44.491062218492	0.108020201551
0	4825	44.599082420043	0.028338749041
0	4830	44.627421169084	0.039896493785
0	4835	44.667317662869	0.128273576692
0	4841	44.795591239561	0.081634259977
0	4846	44.877225499538	0.019434320132
0	4851	44.89665981967	0.01289148281
0	4856	44.90955130248	0.096235043054
0	4863	45.005786345534	0.045043038138
0	4868	45.050829383672	0.028586739678
0	4873	45.07941612335	0.013003678969
0	4878	45.092419802319	0.080142569755
0	4883	45.172562372074	0.129567660448
0	4889	45.302130032522	0.026720764299
0	4894	45.328850796821	0.060408808895
0	4900	45.389259605716	0.008314021358
0	4905	45.397573627074	0.022926844849
0	4910	45.420500471923	0.005210859041
0	4912	45.425711330964	0.075197276434
0	4921	45.500908607398	0.057460624682
0	4926	45.55836923208	0.037908789839
0	4931	45.596278021919	0.022495689964
0	4936	45.618773711883	0.045114594951
0	4943	45.663888306834	0.069625270789
0	4948	45.733513577623	0.02704576583
0	4953	45.760559343453	0.094110201232
0	4959	45.854669544685	0.06809547268
0	4964	45.922765017365	0.057979033921
0	4970	45.980744051286	0.00502047705
0	4972	45.985764528336	0.030134371126
0	4980	46.015898899462	0.042156385012
0	4985	46.058055284474	0.11705007617
0	4992	46.175105360644	0.072769013041
0	4999	46.247874373685	0.092311599476
0	5005	46.340185973161	0.000992156934
0	5007	46.341178130095	0.016579450771
0	5015	46.357757580866	0.125247908393
0	5021	46.483005489259	0.013436129715
0	5026	46.496441618974	0.00445204887
0	5028	46.500893667844	0.00748039875
0	5033	46.508374066594	0.142875820084
0	5043	46.651249886678	0.041950279156
0	5048	46.693200165834	0.012043905826
0	5053	46.70524407166	0.003363511924
0	5055	46.708607583584	0.004177134459
0	5057	46.712784718043	0.010763523808
0	5065	46.723548241851	0.03456908724
0	5073	46.758117329091	0.030928894746
0	5079	46.789046223837	0.003235948456
0	5081	46.792282172293	0.04951561679
0	5089	46.841797789083	0.000705005511
0	5091	46.842502794594	0.048120759977
0	5099	46.890623554571	0.072979195955
0	5104	46.963602750526	0.021795069991
0	5109	46.985397820517	0.020804808018
0	5114	47.006202628535	0.024794296149
0	5119	47.030996924684	0.235038163192
0	5128	47.266035087876	0.309147939539
0	5133	47.575183027415	0.066425047078
0	5138	47.641608074493	0.119292759016
0	5143	47.760900833509	0.072735662784
0	5150	47.833636496293	0.001152303295
0	5152	47.834788799588	0.023074701154
0	5161	47.857863500742	0.049653281963
0	5166	47.907516782705	0.041268504214
0	5171	47.948785286919	0.076222069821
0	5176	48.02500735674	0.00146230632
0	5178	48.02646966306	0.065385708965
0	5186	48.091855372025	0.05247740391
0	5191	48.144332775935	0.101838625224
0	5196	48.246171401159	0.043902991134
0	5202	48.290074392293	0.021368593759
0	5207	48.311442986052	0.036453927739
0	5212	48.347896913791	3.6463955e-05
0	5214	48.347933377746	0.028209375631
0	5222	48.376142753377	0.044960111976
0	5228	48.421102865353	0.096494629041
0	5234	48.517597494394	0.062208374166
0	5240	48.57980586856	0.083886826196
0	5246	48.663692694756	0.060382146038
0	5254	48.724074840794	0.015865391622
0	5259	48.739940232416	0.018481799644
0	5264	48.75842203206	0.093658676984
0	5272	48.852080709044	0.049749619476
0	5277	48.90183032852	0.048762938754
0	5282	48.950593267274	0.063509385445
0	5287	49.014102652719	0.025924818535
0	5292	49.040027471254	0.073122258967
0	5297	49.113149730221	0.389663350997
0	5305	49.502813081218	0.069371434694
0	5311	49.572184515912	0.036475258728
0	5316	49.60865977464	0.046409613289
0	5321	49.655069387929	0.020752631883
0	5326	49.675822019812	0.063541938805
0	5331	49.739363958617	0.138083026835
0	5336	49.877446985452	0.005320470394
0	5338	49.882767455846	0.015170912167
0	5347	49.897938368013	0.032145457585
0	5352	49.930083825598	0.033131743976
0	5357	49.963215569574	0.028697831404
0	5362	49.991913400978	0.001470997756
0	5364	49.993384398734	0.113851192357
0	5377	50.107235591091	0.013749527522
0	5382	50.120985118613	0.006840308516
0	5384	50.127825427129	0.018908226222
0	5392	50.146733653351	0.000825334851
0	5394	50.147558988202	0.083725112686
0	5402	50.231284100888	0.04261689508
0	5407	50.273900995968	0.174321668918
0	5414	50.448222664886	3.2145908e-05
0	5416	50.448254810794	0.095013221401
0	5425	50.543268032195	0.039163388574
0	5430	50.582431420769	0.015591368316
0	5435	50.598022789085	0.001544531266
0	5438	50.599567320351	0.003769814971
0	5440	50.603337135322	0.025159080307
0	5452	50.628496215629	0.07373485197
0	5458	50.702231067599	0.016809339315
0	5463	50.719040406914	0.058890883716
0	5469	50.77793129063	0.006020283249
0	5471	50.783951573879	0.000405696686
0	5473	50.784357270565	0.042029822797
0	5484	50.826387093362	0.000588006333
0	5486	50.826975099695	0.000771052488
0	5488	50.827746152183	0.037308543005
0	5499	50.865054695188	0.015255268368
0	5504	50.880309963556	0.044876962796
0	5509	50.925186926352	0.091558052995
0	5515	51.016744979347	0.007109878444
0	5518	51.023854857791	0.026988647525
0	5526	51.050843505316	0.025914029638
0	5531	51.076757534954	0.014705938147
0	5536	51.091463473101	0.054988592947
0	5542	51.146452066048	0.007642783399
0	5544	51.154094849447	0.0100650735
0	5552	51.164159922947	0.044982816185
0	5557	51.209142739132	0.160845926742
0	5562	51.369988665874	0.002384171184
0	5564	51.372372837058	0.117914442062
0	5572	51.49028727912	0.026711950289
0	5577	51.516999229409	0.042737616409
0	5582	51.559736845818	0.053183727562
0	5587	51.61292057338	0.027102007215
0	5592	51.640022580595	0.013623846752
0	5597	51.653646427347	0.07550735918
0	5603	51.729153786527	0.017273037939
0	5608	51.746426824466	0.067582159237
0	5613	51.814008983703	0.024673248782
0	5618	51.838682232485	0.016122670263
0	5623	51.854804902748	0.065171494638
0	5628	51.919976397386	0.000290455943
0	5630	51.920266853329	0.020005015193
0	5638	51.940271868522	0.023312537473
0	5644	51.963584405995	0.111586206393
0	5649	52.075170612388	0.096409806436
0	5655	52.171580418824	0.076292344985
0	5661	52.247872763809	0.068828788843
0	5666	52.316701552652	0.029193115905
0	5673	52.345894668557	0.053860659191
0	5679	52.399755327748	0.003009689391
0	5681	52.402765017139	0.013512589274
0	5686	52.416277606413	0.04019956948
0	5694	52.456477175893	0.118679834743
0	5700	52.575157010636	0.314500956017
0	5705	52.889657966653	0.102550107442
0	5711	52.992208074095	0.024565786116
0	5716	53.016773860211	0.028706044731
0	5722	53.045479904942	0.051846638896
0	5728	53.097326543838	0.060905788306
0	5734	53.158232332144	0.184404319401
0	5739	53.342636651545	0.010755506247
0	5744	53.353392157792	0.007042173354
0	5746	53.360434331146	0.084651330352
0	5755	53.445085661498	0.029950319195
0	5760	53.475035980693	0.012259201265
0	5765	53.487295181958	0.02575747744
0	5770	53.513052659398	0.001807981016
0	5772	53.514860640414	0.071520007509
0	5780	53.586380647923	0.001013654298
0	5782	53.587394302221	0.070659525612
0	5790	53.658053827833	0.010246887572
0	5795	53.668300715405	0.049976430649
0	5801	53.718277146054	0.00919697135
0	5806	53.727474117404	0.050058587171
0	5811	53.777532704575	0.01389914474
0	5816	53.791431849315	0.113870822224
0	5822	53.905302671539	0.135121222402
0	5829	54.040423893941	0.067901342712
0	5834	54.108325236653	0.029348612948
0	5839	54.137673849601	0.009310589282
0	5844	54.146984438883	0.022417478657
0	5851	54.16940191754	0.049567855462
0	5857	54.218969773002	0.002336362531
0	5859	54.221306135533	0.100426674032
0	5867	54.321732809565	0.008143564225
0	5872	54.32987637379	0.052329924545
0	5877	54.382206298335	0.048100747804
0	5883	54.430307046139	0.167369697583
0	5891	54.597676743722	0.115470730497
0	5900	54.713147474219	0.028923859669
0	5906	54.742071333888	0.093703918341
0	5912	54.835775252229	0.081726151199
0	5918	54.917501403428	0.002747776459
0	5920	54.920249179887	0.103680629027
0	5929	55.023929808914	0.027785954477
0	5934	55.051715763391	0.032402584318
0	5939	55.084118347709	0.012044144023
0	5944	55.096162491732	0.076655061882
0	5951	55.172817553614	0.052648144578
0	5956	55.225465698192	0.000953427018
0	5958	55.22641912521	0.023626201307
0	5966	55.250045326517	0.031845746161
0	5971	55.281891072678	0.061694199098
0	5976	55.343585271776	0.006442395136
0	5978	55.350027666912	0.047175367903
0	5986	55.397203034815	0.047022709049
0	5993	55.444225743864	0.015590460561
0	5998	55.459816204425	0.060899585582
0	6004	55.520715790007	0.018686140735
0	6009	55.539401930742	0.000825309417
0	6011	55.540227240159	0.009113624494
0	6016	55.549340864653	0.000481925117
0	6018	55.54982278977	0.01787377142
0	6026	55.56769656119	0.135562265471
0	6036	55.703258826661	0.03680721308
0	6041	55.740066039741	0.067003785433
0	6046	55.807069825174	0.08202440658
0	6051	55.889094231754	0.082684534742
0	6057	55.971778766496	0.015143864729
0	6062	55.986922631225	0.012130131575
0	6067	55.9990527628	0.012289755915
0	6072	56.011342518715	0.046040948839
0	6077	56.057383467554	0.19125232002
0	6085	56.248635787574	0.044181028901
0	6090	56.292816816475	0.081578332141
0	6095	56.374395148616	0.018169220754
0	6100	56.39256436937	0.173039209809
0	6106	56.565603579179	0.001802815109
0	6108	56.567406394288	0.011626849605
0	6113	56.579033243893	0.111420125822
0	6122	56.690453369715	0.013147861025
0	6129	56.70360123074	0.054697038635
0	6135	56.758298269375	0.090584906152
0	6141	56.848883175527	0.101217850848
0	6146	56.950101026375	0.024392960541
0	6153	56.974493986916	0.004961362497
0	6155	56.979455349413	0.15212299436
0	6165	57.131578343773	0.031914285131
0	6170	57.163492628904	0.023185936965
0	6175	57.186678565869	0.179881853351
0	6184	57.36656041922	0.044629075382
0	6190	57.411189494602	0.035738567996
0	6195	57.446928062598	0.163412436418
0	6202	57.610340499016	0.033987471483
0	6207	57.644327970499	0.006257294362
0	6209	57.650585264861	0.044200610201
0	6218	57.694785875062	0.016782441838
0	6223	57.7115683169	0.124169737307
0	6229	57.835738054207	0.023548801897
0	6234	57.859286856104	0.07049400814
0	6239	57.929780864244	0.014282272921
0	6244	57.944063137165	0.032510333007
0	6249	57.976573470172	0.052088356907
0	6254	58.028661827079	0.075527480995
0	6259	58.104189308074	0.14544069189
0	6264	58.249629999964	0.023768600227
0	6269	58.273398600191	0.007072403812
0	6271	58.280471004003	0.039314965676
0	6279	58.319785969679	0.03941706804
0	6285	58.359203037719	0.040685857988
0	6290	58.399888895707	0.131052959251
0	6295	58.530941854958	0.010185884044
0	6301	58.541127739002	0.015193695294
0	6306	58.556321434296	0.051656539457
0	6311	58.607977973753	0.009249674663
0	6316	58.617227648416	0.082510193142
0	6321	58.699737841558	0.025877794167
0	6327	58.725615635725	0.070346003313
0	6333	58.795961639038	0.074860799032
0	6339	58.87082243807	0.008200375644
0	6344	58.879022813714	0.039673528224
0	6350	58.918696341938	0.191788257541
0	6357	59.110484599479	0.075043292544
0	6363	59.185527892023	0.031209588083
0	6368	59.216737480106	0.055333868135
0	6374	59.272071348241	0.052038025906
0	6379	59.324109374147	0.050535118282
0	6384	59.374644492429	0.027228673777
0	6389	59.401873166206	0.060340955665
0	6394	59.462214121871	0.084476396899
0	6400	59.54669051877	0.057886000678
0	6407	59.604576519448	0.024398523474
0	6412	59.628975042922	0.006043454126
0	6414	59.635018497048	0.032215569451
0	6422	59.667234066499	0.004265888719
0	6424	59.671499955218	0.020383390099
0	6432	59.691883345317	0.00210065403
0	6434	59.693983999347	0.016579950749
0	6442	59.710563950096	0.020814087346
0	6447	59.731378037442	0.006322235242
0	6449	59.737700272684	0.080106791271
0	6457	59.817807063955	0.015760237377
0	6462	59.833567301332	0.03999784794
0	6467	59.873565149272	0.004527697949
0	6469	59.878092847221	0.132184813719
0	6477	60.01027766094	0.064630871826
0	6482	60.074908532766	0.012688468536
0	6487	60.087597001302	0.014458743203
0	6492	60.102055744505	0.011113237999
0	6497	60.113168982504	0.012106468897
0	6502	60.125275451401	0.009829454824
0	6508	60.135104906225	0.032105434105
0	6513	60.16721034033	0.106798680097
0	6519	60.274009020427	0.014315480178
0	6524	60.288324500605	0.013193245725
0	6529	60.30151774633	0.004630613623
0	6531	60.306148359953	0.009563550662
0	6536	60.315711910615	0.000913363675
0	6538	60.31662527429	0.032929000793
0	6549	60.349554275083	0.023307449268
0	6554	60.372861724351	0.064247532268
0	6559	60.437109256619	0.113310951906
0	6564	60.550420208525	0.038856772136
0	6569	60.589276980661	0.018299070115
0	6574	60.607576050776	0.128236632306
0	6579	60.735812683082	0.06037366463
0	6584	60.796186347712	0.00975267804
0	6589	60.805939025752	0.035144091866
0	6594	60.841083117618	0.020372187899
0	6599	60.861455305517	0.006475193064
0	6602	60.867930498581	0.038857791576
0	6610	60.906788290157	0.008630738344
0	6615	60.915419028501	0.004706251831
0	6617	60.920125280332	0.043309929628
0	6625	60.96343520996	0.031380614124
0	6630	60.994815824084	0.047677166402
0	6635	61.042492990486	0.073203734746
0	6640	61.115696725232	0.06843060726
0	6646	61.184127332492	0.045141516555
0	6652	61.229268849047	0.058127654305
0	6657	61.287396503352	0.017014534264
0	6662	61.304411037616	0.024779269766
0	6667	61.329190307382	0.056382114308
0	6672	61.38557242169	0.077186450217
0	6678	61.462758871907	0.06259245929
0	6683	61.525351331197	0.023198760575
0	6688	61.548550091772	0.04416510476
0	6693	61.592715196532	0.065842104267
0	6699	61.658557300799	0.09650040155
0	6705	61.755057702349	0.038641381527
0	6710	61.793699083876	0.008339852842
0	6715	61.802038936718	0.109117245651
0	6720	61.911156182369	0.008031794106
0	6725	61.919187976475	0.003098300535
0	6727	61.92228627701	0.005229283593
0	6732	61.927515560603	0.006372450505
0	6737	61.933888011108	0.091504939307
0	6746	62.025392950415	0.140195142166
0	6752	62.165588092581	0.067652101867
0	6757	62.233240194448	0.04184785902
0	6762	62.275088053468	0.072069666941
0	6767	62.347157720409	0.011154872563
0	6772	62.358312592972	0.050612631093
0	6778	62.408925224065	0.087174149197
0	6784	62.496099373262	0.070476368962
0	6789	62.566575742224	0.122680271244
0	6796	62.689256013468	0.017692170415
0	6801	62.706948183883	0.030156041896
0	6807	62.737104225779	0.138075228193
0	6813	62.875179453972	0.022750418569
0	6818	62.897929872541	0.034210470333
0	6823	62.932140342874	0.072182376235
0	6828	63.004322719109	0.054129127247
0	6833	63.058451846356	0.045812450603
0	6838	63.104264296959	0.01409202609
0	6843	63.118356323049	0.006028558178
0	6845	63.124384881227	0.076748627295
0	6853	63.201133508522	0.100363861003
0	6858	63.301497369525	0.122573572925
0	6867	63.42407094245	0.005015756906
0	6869	63.429086699356	0.051127499526
0	6878	63.480214198882	0.014926511281
0	6883	63.495140710163	0.012529680415
0	6888	63.507670390578	0.004248385994
0	6890	63.511918776572	0.05579668699
0	6898	63.567715463562	0.014692520037
0	6903	63.582407983599	0.041404468657
0	6908	63.623812452256	0.224399859437
0	6915	63.848212311693	0.014047027638
0	6920	63.862259339331	0.056532569875
0	6925	63.918791909206	0.061702944621
0	6931	63.980494853827	0.039080475674
0	6937	64.019575329501	0.021175090705
0	6942	64.040750420206	0.000691573715
0	6944	64.041441993921	0.002155299586
0	6946	64.043597293507	0.071067278999
0	6957	64.114664572506	0.009593957882
0	6962	64.124258530388	0.084977590683
0	6968	64.209236121071	0.03035409648
0	6973	64.239590217551	0.0402701593
0	6979	64.279860376851	0.171799407731
0	6986	64.451659784582	0.016986793428
0	6991	64.46864657801	0.046276189768
0	6996	64.514922767778	0.093896385027
0	7002	64.608819152805	0.024880511137
0	7007	64.633699663942	0.084846278362
0	7013	64.718545942304	0.042861926281
0	7018	64.761407868585	0.113017997309
0	7024	64.874425865894	0.15167119358
0	7031	65.026097059474	0.030496431526
0	7036	65.056593491	0.049807030458
0	7041	65.106400521458	0.149141707898
0	7050	65.255542229356	0.114462760224
0	7056	65.37000498958	0.012376752004
0	7061	65.382381741584	0.023101348647
0	7066	65.405483090231	0.005490359641
0	7068	65.410973449872	0.150432578669
0	7076	65.561406028541	0.027464324658
0	7081	65.588870353199	0.177467555639
0	7088	65.766337908838	0.04577411597
0	7093	65.812112024808	0.015427042923
0	7098	65.827539067731	0.001555088843
0	7100	65.829094156574	0.031081660524
0	7108	65.860175817098	0.029690007742
0	7113	65.88986582484	0.026696442467
0	7118	65.916562267307	0.054414048354
0	7125	65.970976315661	0.021027922467
0	7130	65.992004238128	0.043524904362
0	7135	66.03552914249	0.049624449117
0	7141	66.085153591607	0.071758853406
0	7147	66.156912445013	0.011895624232
0	7152	66.168808069245	0.098759354537
0	7158	66.267567423782	0.005564298298
0	7160	66.27313172208	0.028377826579
0	7168	66.301509548659	0.019600779387
0	7173	66.321110328046	0.045658615135
0	7178	66.366768943181	0.040397231834
0	7183	66.407166175015	0.029922329593
0	7188	66.437088504608	0.099543613184
0	7194	66.536632117792	0.043432467266
0	7199	66.580064585058	0.08278603706
0	7205	66.662850622118	0.00209548578
0	7207	66.664946107898	0.006020998282
0	7212	66.67096710618	0.025745635005
0	7221	66.696712741185	0.010684607631
0	7226	66.707397348816	0.019325353779
0	7231	66.726722702595	0.062011100957
0	7236	66.788733803552	0.041062491796
0	7241	66.829796295348	0.020136262151
0	7246	66.849932557499	0.000662213424
0	7248	66.850594770923	0.000256936328
0	7250	66.850851707251	0.074301693646
0	7261	66.925153400897	0.010873016776
0	7266	66.936026417673	0.127975597739
0	7271	67.064002015412	0.025395626538
0	7276	67.08939764195	0.037669902906
0	7282	67.127067544856	0.02773300114
0	7288	67.154800545996	0.047866567023
0	7293	67.202667113019	0.034545785922
0	7298	67.237212898941	0.032877279408
0	7303	67.270090178349	0.022129857597
0	7308	67.292220035946	0.054169144776
0	7313	67.346389180722	0.010208612952
0	7318	67.356597793674	0.027353392005
0	7323	67.383951185679	0.026851131047
0	7328	67.410802316726	0.012479738822
0	7333	67.423282055548	0.020496644204
0	7338	67.443778699752	0.081906768617
0	7343	67.525685468369	0.105703100702
0	7349	67.631388569071	0.044239347872
0	7354	67.675627916943	0.04689218275
0	7361	67.722520099693	0.07265715111
0	7366	67.795177250803	0.037711699071
0	7372	67.832888949874	0.011680276111
0	7377	67.844569225985	0.013367420948
0	7382	67.857936646933	0.011418336009
0	7387	67.869354982942	0.048336327286
0	7393	67.917691310228	0.045035685441
0	7399	67.962726995669	0.013856410912
0	7405	67.976583406581	0.066328455526
0	7410	68.042911862107	0.054249960059
0	7416	68.097161822166	0.013375826302
0	7421	68.110537648468	0.07765778623
0	7426	68.188195434698	0.035913763297
0	7431	68.224109197995	0.031789991623
0	7437	68.255899189618	0.010185427229
0	7442	68.266084616847	0.218875726786
0	7449	68.484960343633	0.041876712808
0	7457	68.526837056441	0.096568633166
0	7463	68.623405689607	0.03065451146
0	7468	68.654060201067	0.003636641852
0	7470	68.657696842919	0.071615488075
0	7480	68.729312330994	0.077713848792
0	7487	68.807026179786	0.062250454139
0	7494	68.869276633925	0.005876456194
0	7497	68.875153090119	0.06200500236
0	7505	68.937158092479	0.057144808355
0	7511	68.994302900834	0.045789781894
0	7519	69.040092682728	0.003239751691
0	7521	69.043332434419	0.011303863951
0	7529	69.05463629837	0.003433439528
0	7531	69.058069737898	0.007264659944
0	7537	69.065334397842	0.009002348909
0	7542	69.074336746751	3.8812247e-05
0	7544	69.074375558998	0.091309382229
0	7555	69.165684941227	0.050142059089
0	7560	69.215827000316	0.018305663217
0	7565	69.234132663533	0.034858863447
0	7570	69.26899152698	0.023947591617
0	7575	69.292939118597	0.014199611916
0	7580	69.307138730513	0.029605561416
0	7585	69.336744291929	0.101498602007
0	7591	69.438242893936	0.019524363124
0	7596	69.45776725706	0.035888358351
0	7601	69.493655615411	0.054829435312
0	7607	69.548485050723	0.058598472008
0	7613	69.607083522731	0.169930816349
0	7619	69.77701433908	0.041429687243
0	7624	69.818444026323	0.018245236005
0	7629	69.836689262328	0.313401475255
0	7637	70.150090737583	0.018808183028
0	7642	70.168898920611	0.012953350087
0	7647	70.181852270698	0.000954762527
0	7649	70.182807033225	0.164676038758
0	7658	70.347483071983	0.020015607224
0	7663	70.367498679207	0.113787396299
0	7670	70.481286075506	0.029096034151
0	7675	70.510382109657	0.047888678648
0	7681	70.558270788305	0.175999503665
0	7686	70.73427029197	0.006378630297
0	7688	70.740648922267	0.074112848947
0	7696	70.814761771214	0.007072514059
0	7698	70.821834285273	0.203942089851
0	7708	71.025776375124	0.041616121864
0	7713	71.067392496988	0.039749799732
0	7718	71.10714229672	0.05157376165
0	7724	71.15871605837	0.061842462963
0	7729	71.220558521333	0.010114687594
0	7734	71.230673208927	0.069655627674
0	7739	71.300328836601	0.006543648618
0	7741	71.306872485219	0.081977077702
0	7750	71.388849562921	0.00335974258
0	7752	71.392209305501	0.024972701513
0	7760	71.417182007014	0.074683368236
0	7767	71.49186537525	0.013220193464
0	7772	71.505085568714	0.03623902534
0	7777	71.541324594054	0.025253736688
0	7782	71.566578330742	0.098033626107
0	7789	71.664611956849	0.022751215739
0	7794	71.687363172588	0.172618978419
0	7801	71.859982151007	0.001587120406
0	7803	71.861569271413	0.01450326415
0	7811	71.876072535563	0.024182919969
0	7816	71.900255455532	0.013110283034
0	7821	71.913365738566	0.016135146748
0	7826	71.929500885314	0.06481525315
0	7831	71.994316138464	0.015901090605
0	7836	72.010217229069	0.083451658873
0	7841	72.093668887942	0.021112803075
0	7846	72.114781691017	0.002053554359
0	7848	72.116835245376	0.049453141365
0	7856	72.166288386741	0.009981331006
0	7861	72.176269717747	0.050300577098
0	7866	72.226570294845	0.017435005821
0	7872	72.244005300666	0.002741876116
0	7874	72.246747176782	0.049385621781
0	7882	72.296132798563	0.108854179111
0	7887	72.404986977674	0.150832597261
0	7893	72.555819574935	0.042206129226
0	7898	72.598025704161	0.049324859611
0	7903	72.647350563772	0.041579089554
0	7908	72.688929653326	0.002266875887
0	7910	72.691196529213	0.032392308314
0	7918	72.723588837527	0.006223819297
0	7920	72.729812656824	0.016587953428
0	7928	72.746400610252	0.084846075449
0	7934	72.831246685701	0.008896856245
0	7939	72.840143541946	0.12436936267
0	7945	72.964512904616	0.010759742764
0	7950	72.97527264738	0.048707476834
0	7956	73.023980124214	0.047175470783
0	7962	73.071155594997	0.062227824324
0	7967	73.133383419321	0.028408273341
0	7973	73.161791692662	0.045253035048
0	7978	73.20704472771	0.021862427791
0	7983	73.228907155501	0.012514524224
0	7988	73.241421679725	0.045847968348
0	7994	73.287269648073	0.018382943843
0	8000	73.305652591916	0.027199582262
0	8005	73.332852174178	0.214146074331
0	8012	73.546998248509	0.04241976501
0	8018	73.589418013519	0.0507388331
0	8024	73.640156846619	0.03542675088
0	8029	73.675583597499	0.087532939418
0	8034	73.763116536917	0.022779068891
0	8039	73.785895605808	0.033502016053
0	8044	73.819397621861	0.108379934794
0	8050	73.927777556655	0.004195753785
0	8052	73.93197331044	0.056323645162
0	8060	73.988296955602	0.003158028147
0	8062	73.991454983749	0.149666698654
0	8072	74.141121682403	0.004847927063
0	8074	74.145969609466	0.015357186313
0	8082	74.161326795779	0.079147151724
0	8088	74.240473947503	0.059182009574
0	8094	74.299655957077	0.025100458175
0	8099	74.324756415252	0.078430204211
0	8104	74.403186619463	0.04938650678
0	8109	74.452573126243	0.066182060671
0	8114	74.518755186914	0.015825508265
0	8119	74.534580695179	0.019383138742
0	8124	74.553963833921	0.001685793482
0	8126	74.555649627403	0.004083812997
0	8128	74.5597334404	0.077503558835
0	8139	74.637236999235	0.016903870988
0	8144	74.654140870223	0.025376583103
0	8149	74.679517453326	0.085225029815
0	8156	74.764742483141	0.047361695422
0	8163	74.812104178563	0.01647580751
0	8168	74.828579986073	0.063085509761
0	8173	74.891665495834	0.015446895785
0	8178	74.907112391619	0.077920895082
0	8184	74.985033286701	0.029866098633
0	8189	75.014899385334	0.016634546729
0	8194	75.031533932063	0.009124978709
0	8199	75.040658910772	0.132256493964
0	8204	75.172915404736	0.01776061213
0	8209	75.190676016866	0.014594395801
0	8214	75.205270412667	0.017469508947
0	8219	75.222739921614	0.015216827014
0	8224	75.237956748628	0.032293562248
0	8229	75.270250310876	0.000266831343
0	8231	75.270517142219	0.002732366528
0	8233	75.273249508747	0.015267686848
0	8241	75.288517195595	0.028586000747
0	8249	75.317103196342	0.048848073293
0	8254	75.365951269635	0.001940632011
0	8256	75.367891901646	0.035438552008
0	8264	75.403330453654	0.000292373141
0	8266	75.403622826795	0.043350247192
0	8274	75.446973073987	0.057490906383
0	8280	75.50446398037	0.00296061594
0	8282	75.50742459631	0.017604766236
0	8291	75.525029362546	0.044928122014
0	8296	75.56995748456	0.16741982816
0	8302	75.73737731272	0.140754137713
0	8308	75.878131450433	0.002241543918
0	8310	75.880372994351	0.02333580437
0	8318	75.903708798721	0.023254776683
0	8323	75.926963575404	0.005725670966
0	8325	75.93268924637	0.051219855758
0	8333	75.983909102128	0.07329085244
0	8338	76.057199954568	0.005744247177
0	8341	76.062944201745	0.026903623513
0	8349	76.089847825258	0.105329113913
0	8354	76.195176939171	0.03686071704
0	8360	76.232037656211	0.086041527838
0	8365	76.318079184049	0.083220779698
0	8371	76.401299963747	0.00591007791
0	8373	76.407210041657	0.011637110072
0	8381	76.418847151729	0.049495389078
0	8387	76.468342540807	0.060032674531
0	8392	76.528375215338	0.00542710831
0	8394	76.533802323648	0.091195841924
0	8402	76.624998165572	0.056120131346
0	8407	76.681118296918	0.012636292052
0	8412	76.69375458897	0.055347018527
0	8417	76.749101607497	0.145155587235
0	8422	76.894257194732	0.075842123765
0	8428	76.970099318497	0.023520964519
0	8434	76.993620283016	0.05376008031
0	8439	77.047380363326	0.034437172984
0	8445	77.08181753631	0.030560671757
0	8450	77.112378208067	0.00029546863
0	8452	77.112673676697	0.007608149705
0	8457	77.120281826402	0.033267187983
0	8465	77.153549014385	0.08049399929
0	8472	77.234043013675	0.208748236846
0	8478	77.442791250521	0.013285560684
0	8483	77.456076811205	0.028413092522
0	8488	77.484489903727	0.00964137176
0	8493	77.494131275487	0.061845309129
0	8498	77.555976584616	0.055943455069
0	8503	77.611920039685	0.085610104044
0	8509	77.697530143729	0.0301025749
0	8515	77.727632718629	0.018129372558
0	8520	77.745762091187	0.037069492892
0	8525	77.782831584079	0.01160532921
0	8530	77.794436913289	0.047839915922
0	8536	77.842276829211	0.012408344503
0	8541	77.854685173714	0.085703646377
0	8547	77.940388820091	0.016920610911
0	8552	77.957309431002	0.159093836262
0	8559	78.116403267264	0.072389765554
0	8565	78.188793032818	0.124825520205
0	8572	78.313618553023	0.037808164373
0	8578	78.351426717396	0.096174758841
0	8584	78.447601476237	0.002123517464
0	8586	78.449724993701	0.021917458905
0	8594	78.471642452606	0.04378905537
0	8600	78.515431507976	0.015360807666
0	8605	78.530792315642	0.006904291729
0	8607	78.537696607371	0.043220251388
0	8616	78.580916858759	0.003840007678
0	8618	78.584756866437	0.040124639509
0	8627	78.624881505946	0.127868461462
0	8636	78.752749967408	0.027055579198
0	8641	78.779805546606	0.012141302434
0	8646	78.79194684904	0.145518993574
0	8654	78.937465842614	0.013493498079
0	8659	78.950959340693	0.017315996073
0	8664	78.968275336766	0.027101511719
0	8670	78.995376848485	0.00821932356
0	8675	79.003596172045	0.056732254343
0	8681	79.060328426388	0.025762006026
0	8686	79.086090432414	0.054722885936
0	8691	79.14081331835	0.069783115579
0	8697	79.210596433929	0.005923211596
0	8700	79.216519645525	0.020271642451
0	8708	79.236791287976	0.026940238821
0	8714	79.263731526797	0.004680832599
0	8716	79.268412359396	0.063427091637
0	8724	79.331839451033	0.04603664959
0	8730	79.377876100623	0.000331268273
0	8732	79.378207368896	0.046546578988
0	8740	79.424753947884	0.009573172869
0	8746	79.434327120753	0.129423271495
0	8751	79.563750392248	0.006434200219
0	8753	79.570184592467	0.038910737163
0	8761	79.60909532963	0.102932692817
0	8767	79.712028022447	0.102313873112
0	8772	79.814341895559	0.180626445435
0	8779	79.994968340994	0.015295637489
0	8785	80.010263978483	0.029105119794
0	8790	80.039369098277	0.062770435305
0	8795	80.102139533582	0.042312282038
0	8801	80.14445181562	0.038505205649
0	8806	80.182957021269	0.034661112026
0	8812	80.217618133295	0.033258519395
0	8817	80.25087665269	0.091041445198
0	8823	80.341918097888	0.186442560647
0	8828	80.528360658535	0.057925724566
0	8834	80.586286383101	0.019367917874
0	8839	80.605654300975	0.05655793029
0	8844	80.662212231265	0.011398898371
0	8849	80.673611129636	0.089981052202
0	8855	80.763592181838	0.005490586182
0	8857	80.76908276802	0.00767993488
0	8862	80.7767627029	0.027892494364
0	8870	80.804655197264	0.001680558616
0	8872	80.80633575588	0.09510597394
0	8881	80.90144172982	0.3279067074
0	8889	81.22934843722	0.028182799447
0	8894	81.257531236667	0.019802374474
0	8899	81.277333611141	0.050951985382
0	8904	81.328285596523	0.010723439246
0	8910	81.339009035769	0.052576910364
0	8916	81.391585946133	0.054402960029
0	8921	81.445988906162	0.093113489922
0	8926	81.539102396084	0.003386343214
0	8928	81.542488739298	0.015186164266
0	8936	81.557674903564	0.122797719863
0	8941	81.680472623427	0.020741097545
0	8946	81.701213720972	0.062121364623
0	8951	81.763335085595	0.247564493935
0	8957	82.01089957953	0.026169068043
0	8962	82.037068647573	0.028368135567
0	8967	82.06543678314	0.054974913947
0	8973	82.120411697087	0.007075640922
0	8975	82.127487338009	0.020541727165
0	8983	82.148029065174	0.009461600375
0	8988	82.157490665549	0.002954773929
0	8990	82.160445439478	0.078663413707
0	8999	82.239108853185	0.002419460276
0	9001	82.241528313461	0.136302407982
0	9012	82.377830721443	0.063251350181
0	9017	82.441082071624	0.093889742394
0	9023	82.534971814018	0.009037321626
0	9028	82.544009135644	0.003560366476
0	9030	82.54756950212	0.124765523676
0	9039	82.672335025796	0.029547571714
0	9044	82.70188259751	0.054843149904
0	9049	82.756725747414	0.131019616163
0	9056	82.887745363577	0.110195729029
0	9062	82.997941092606	0.03321794031
0	9067	83.031159032916	0.021966124244
0	9072	83.05312515716	0.013300987439
0	9077	83.066426144599	0.059821194362
0	9082	83.126247338961	0.06688615955
0	9088	83.193133498511	0.040019410399
0	9093	83.23315290891	0.018952828929
0	9098	83.252105737839	0.01361669301
0	9105	83.265722430849	0.083799587321
0	9110	83.34952201817	0.021580544527
0	9115	83.371102562697	0.03190547281
0	9120	83.403008035507	0.045234013592
0	9125	83.448242049099	0.020342486995
0	9130	83.468584536094	0.090028701811
0	9137	83.558613237905	0.003217679251
0	9139	83.561830917156	0.013915221547
0	9147	83.575746138703	0.077751267679
0	9152	83.653497406382	0.013803790242
0	9157	83.667301196624	0.015475865864
0	9162	83.682777062488	0.042735502093
0	9168	83.725512564581	0.021541771315
0	9173	83.747054335896	0.107565468671
0	9183	83.854619804567	0.107184384755
0	9188	83.961804189322	0.050644602908
0	9193	84.01244879223	0.04682920779
0	9198	84.05927800002	0.07495995583
0	9203	84.13423795585	0.020665497954
0	9208	84.154903453804	0.116963899219
0	9213	84.271867353023	0.025283458064
0	9218	84.297150811087	0.029819577263
0	9224	84.32697038835	0.015444552412
0	9229	84.342414940762	0.066984825964
0	9235	84.409399766726	0.05912274428
0	9241	84.468522511006	0.004384796147
0	9243	84.472907307153	0.062020997039
0	9251	84.534928304192	0.064527318693
0	9258	84.599455622885	0.030515268235
0	9263	84.62997089112	0.033641404716
0	9268	84.663612295836	0.001373947563
0	9270	84.664986243399	0.018939634475
0	9278	84.683925877874	0.037671524463
0	9283	84.721597402337	0.006179121283
0	9285	84.72777652362	0.033748445135
0	9293	84.761524968755	0.070427528821
0	9299	84.831952497576	0.089276429101
0	9304	84.921228926677	0.025872478249
0	9309	84.947101404926	0.01771546312
0	9314	84.964816868046	0.161621989506
0	9319	85.126438857552	0.037167652039
0	9325	85.163606509591	0.002404729726
0	9327	85.166011239317	0.075975194416
0	9335	85.241986433733	0.057319842828
0	9342	85.299306276561	0.051576034063
0	9347	85.350882310624	0.037745454614
0	9353	85.388627765238	0.069047107857
0	9358	85.457674873095	0.039082200101
0	9364	85.496757073196	0.070281746572
0	9369	85.567038819768	0.027399646498
0	9376	85.594438466266	0.083400960318
0	9381	85.677839426584	0.096143877992
0	9386	85.773983304576	0.005920333953
0	9388	85.779903638529	0.126736601849
0	9398	85.906640240378	0.10525893057
0	9405	86.011899170948	0.02140254606
0	9410	86.033301717008	0.004069593108
0	9413	86.037371310116	0.051096440995
0	9422	86.088467751111	0.010424909841
0	9427	86.098892660952	0.00657370162
0	9429	86.105466362572	0.153618475153
0	9439	86.259084837725	0.007511798605
0	9444	86.26659663633	0.064105951813
0	9450	86.330702588143	0.07357936497
0	9457	86.404281953113	0.089928278997
0	9462	86.49421023211	4.7175681e-05
0	9464	86.494257407791	0.059661940981
0	9472	86.553919348772	0.042226656584
0	9478	86.596146005356	0.067794948759
0	9483	86.663940954115	0.037928464636
0	9488	86.701869418751	0.034419435294
0	9493	86.736288854045	0.005568253737
0	9495	86.741857107782	0.05631717616
0	9503	86.798174283942	0.071595866642
0	9508	86.869770150584	0.028985336989
0	9513	86.898755487573	0.065325061889
0	9518	86.964080549462	0.163154712842
0	9523	87.127235262304	0.058534728618
0	9528	87.185769990922	0.043176305728
0	9534	87.22894629665	0.012871890174
0	9539	87.241818186824	0.099834718268
0	9544	87.341652905092	0.019383428048
0	9549	87.36103633314	0.0535457525
0	9555	87.41458208564	0.027934970871
0	9560	87.442517056511	0.019505187976
0	9565	87.462022244487	0.016583672447
0	9572	87.478605916934	0.036320578087
0	9578	87.514926495021	0.010629121979
0	9583	87.525555617	0.031346884348
0	9588	87.556902501348	0.027216209708
0	9593	87.584118711056	0.19104617786
0	9599	87.775164888916	0.010597773278
0	9604	87.785762662194	0.014396048097
0	9609	87.800158710291	0.013986039903
0	9614	87.814144750194	0.118825338829
0	9620	87.932970089023	0.011604523124
0	9625	87.944574612147	0.137838917155
0	9631	88.082413529302	0.076689899568
0	9638	88.15910342887	0.005845749925
0	9640	88.164949178795	0.049365043697
0	9648	88.214314222492	0.041594936777
0	9653	88.255909159269	0.029555623349
0	9658	88.285464782618	0.007868581658
0	9663	88.293333364276	0.047634809687
0	9668	88.340968173963	0.024244429014
0	9673	88.365212602977	0.045555586404
0	9678	88.410768189381	0.010266227705
0	9683	88.421034417086	0.007549831592
0	9686	88.428584248678	0.1162151813
0	9694	88.544799429978	0.005116104842
0	9696	88.54991553482	0.122601832126
0	9704	88.672517366946	0.059779508416
0	9709	88.732296875362	0.038376319729
0	9714	88.770673195091	0.056340769667
0	9720	88.827013964758	0.011481337224
0	9725	88.838495301982	0.074360387917
0	9731	88.912855689899	0.003481107236
0	9733	88.916336797135	0.005464877729
0	9738	88.921801674864	0.047075819948
0	9746	88.968877494812	0.141654299993
0	9753	89.110531794805	0.047621553005
0	9758	89.15815334781	0.076744751394
0	9764	89.234898099204	0.046335121287
0	9769	89.281233220491	0.000749774127
0	9771	89.281982994618	0.01333784369
0	9776	89.295320838308	0.082069881769
0	9784	89.377390720077	0.139645322608
0	9789	89.517036042685	0.04428581713
0	9794	89.561321859815	0.039030545369
0	9799	89.600352405184	0.251190741562
0	9809	89.851543146746	0.018045913372
0	9814	89.869589060118	0.008380335868
0	9819	89.877969395986	0.018305939439
0	9825	89.896275335425	0.086509853207
0	9831	89.982785188632	0.026143686177
0	9836	90.008928874809	0.038984115236
0	9841	90.047912990045	0.112757950681
0	9847	90.160670940726	0.035510467241
0	9852	90.196181407967	0.012951132838
0	9858	90.209132540805	0.028043697813
0	9864	90.237176238618	0.024196262922
0	9869	90.26137250154	0.025467558938
0	9874	90.286840060478	0.025728430241
0	9879	90.312568490719	0.086907249346
0	9885	90.399475740065	0.029689787866
0	9890	90.429165527931	0.00560979736
0	9892	90.434775325291	0.004447559957
0	9897	90.439222885248	0.067329219672
0	9905	90.50655210492	0.020715452181
0	9910	90.527267557101	0.001372680789
0	9912	90.52864023789	0.022238706747
0	9920	90.550878944637	0.057337852509
0	9926	90.608216797146	0.071790025597
0	9931	90.680006822743	0.140918456701
0	9937	90.820925279444	0.054177856958
0	9943	90.875103136402	0.081132964244
0	9949	90.956236100646	0.105998927133
0	9954	91.062235027779	0.05210262231
0	9960	91.114337650089	0.024347891743
0	9966	91.138685541832	0.052769977643
0	9971	91.191455519475	0.009161553607
0	9976	91.200617073082	0.000254070477
0	9978	91.200871143559	0.017344989201
0	9986	91.21821613276	0.061742397017
0	9991	91.279958529777	0.153729176768
0	9998	91.433687706545	0.06735376729
0	10003	91.501041473835	0.034912706621
0	10008	91.535954180456	0.026302969248
0	10013	91.562257149704	0.078713414129
0	10018	91.640970563833	0.05483139648
0	10024	91.695801960313	0.045667526119
0	10029	91.741469486432	0.046941157739
0	10034	91.788410644171	0.005551701429
0	10036	91.7939623456	0.001832861837
0	10038	91.795795207437	0.015039843595
0	10046	91.810835051032	0.05598092705
0	10056	91.866815978082	0.03436006873
0	10061	91.901176046812	0.004323289599
0	10063	91.905499336411	0.012901161657
0	10071	91.918400498068	0.034040286851
0	10076	91.952440784919	0.029594686331
0	10081	91.98203547125	0.038612294434
0	10086	92.020647765684	0.07350239739
0	10093	92.094150163074	0.019952267826
0	10098	92.1141024309	0.004423569178
0	10100	92.118526000078	0.19313522621
0	10110	92.311661226288	0.080737855435
0	10115	92.392399081723	0.065882268137
0	10121	92.45828134986	0.055911312756
0	10128	92.514192662616	0.092204590577
0	10133	92.606397253193	0.044721485429
0	10138	92.651118738622	0.022136639465
0	10143	92.673255378087	0.029214650278
0	10148	92.702470028365	0.07980126947
0	10156	92.782271297835	0.040390479563
0	10161	92.822661777398	0.031701727243
0	10166	92.854363504641	0.231239403869
0	10173	93.08560290851	0.02923881933
0	10178	93.11484172784	0.008623524964
0	10183	93.123465252804	0.023454892391
0	10189	93.146920145195	0.076380755587
0	10194	93.223300900782	0.041401378818
0	10199	93.2647022796	0.092876911813
0	10204	93.357579191413	0.036387329369
0	10209	93.393966520782	0.004801467818
0	10211	93.3987679886	0.002381347437
0	10213	93.401149336037	0.04383127008
0	10224	93.444980606117	0.077773726592
0	10229	93.522754332709	0.007739651452
0	10234	93.530493984161	0.013101930473
0	10239	93.543595914634	0.001954133111
0	10241	93.545550047745	0.014664467163
0	10249	93.560214514908	0.232455036879
0	10256	93.792669551787	0.071814877317
0	10262	93.864484429104	0.033954581366
0	10268	93.89843901047	0.069756212324
0	10273	93.968195222794	0.034047092246
0	10278	94.00224231504	0.081184644742
0	10283	94.083426959782	0.046971767073
0	10288	94.130398726855	0.015984108479
0	10293	94.146382835334	0.085424083698
0	10298	94.231806919032	0.029320363892
0	10303	94.261127282924	0.012319189958
0	10309	94.273446472882	0.009129574963
0	10314	94.282576047845	0.048905570577
0	10320	94.331481618422	0.003898724923
0	10322	94.335380343345	0.059912188387
0	10331	94.395292531732	0.002933754369
0	10333	94.398226286101	0.070627940147
0	10341	94.468854226248	0.064495863158
0	10347	94.533350089406	0.175393949412
0	10352	94.708744038818	0.019964971485
0	10359	94.728709010303	0.052667433633
0	10364	94.781376443936	0.132677078304
0	10371	94.91405352224	0.078345262224
0	10377	94.992398784464	0.000428464216
0	10379	94.99282724868	0.002003247963
0	10381	94.994830496643	0.0560469886
0	10393	95.050877485243	0.030998688988
0	10398	95.081876174231	0.030938661353
0	10403	95.112814835584	0.199489628078
0	10408	95.312304463662	0.007166794049
0	10410	95.319471257711	0.042244627261
0	10418	95.361715884972	0.010067207864
0	10423	95.371783092836	0.051862559351
0	10429	95.423645652187	0.054509484469
0	10434	95.478155136656	0.149932185233
0	10441	95.628087321889	0.003948016538
0	10443	95.632035338427	0.011774805051
0	10451	95.643810143478	0.010379894785
0	10456	95.654190038263	0.084662791963
0	10461	95.738852830226	0.122253012971
0	10469	95.861105843197	0.021595636349
0	10474	95.882701479546	0.054768616126
0	10479	95.937470095672	0.060182471066
0	10484	95.997652566738	0.023926416872
0	10489	96.02157898361	0.056537719999
0	10494	96.078116703609	0.018844039165
0	10499	96.096960742774	0.093557400566
0	10505	96.19051814334	0.007625904178
0	10507	96.198144047518	0.057104991622
0	10515	96.25524903914	0.015861155016
0	10520	96.271110194156	0.108359914924
0	10526	96.37947010908	0.085636684189
0	10532	96.465106793269	0.015599766353
0	10537	96.480706559622	0.010289844058
0	10542	96.49099640368	0.027082089402
0	10548	96.518078493082	0.007753614557
0	10550	96.525832107639	0.034198620397
0	10558	96.560030728036	0.015514459131
0	10563	96.575545187167	0.071651350563
0	10568	96.64719653773	0.056102347468
0	10573	96.703298885198	0.000140063871
0	10575	96.703438949069	0.054639630364
0	10584	96.758078579433	0.022195768984
0	10589	96.780274348417	0.237253060679
0	10595	97.017527409096	0.038010842728
0	10600	97.055538251824	0.047003771294
0	10606	97.102542023118	0.031197197262
0	10611	97.13373922038	0.027132638444
0	10616	97.160871858824	0.010047064277
0	10621	97.170918923101	0.004073140973
0	10623	97.174992064074	0.027827915901
0	10631	97.202819979975	0.050314320516
0	10637	97.253134300491	0.198920519627
0	10643	97.452054820118	0.108275269519
0	10649	97.560330089637	0.063642107918
0	10654	97.623972197555	0.02924638544
0	10659	97.653218582995	0.026344511278
0	10664	97.679563094273	0.019949972036
0	10669	97.699513066309	0.051670110455
0	10674	97.751183176764	0.032499002275
0	10679	97.783682179039	0.005945119786
0	10681	97.789627298825	0.077906648695
0	10691	97.86753394752	0.005725242131
0	10693	97.873259189651	0.064057737871
0	10701	97.937316927522	0.089757616696
0	10706	98.027074544218	0.032599746513
0	10711	98.059674290731	0.0249642086
0	10716	98.084638499331	0.162367246313
0	10722	98.247005745644	0.052194827203
0	10727	98.299200572847	0.00872177438
0	10732	98.307922347227	0.221124366631
0	10740	98.529046713858	0.046518316889
0	10745	98.575565030747	0.042491762813
0	10751	98.61805679356	0.001646344321
0	10753	98.619703137881	0.009855287865
0	10758	98.629558425746	0.056223734597
0	10766	98.685782160343	0.162012705149
0	10776	98.847794865492	0.105501940729
0	10781	98.953296806221	0.009343759861
0	10787	98.962640566082	0.016204838134
0	10792	98.978845404216	0.012449359977
0	10797	98.991294764193	0.053003913614
0	10802	99.044298677807	0.255264844514
0	10808	99.299563522321	0.066754138759
0	10813	99.36631766108	0.048479230854
0	10818	99.414796891934	0.039517590492
0	10823	99.454314482426	0.071566111014
0	10828	99.52588059344	0.004082790678
0	10830	99.529963384118	0.088924564756
0	10839	99.618887948874	0.069452316084
0	10845	99.688340264958	0.050225219678
0	10852	99.738565484636	0.055760568066
0	10858	99.794326052702	0.055268732555
0	10864	99.849594785257	0.014117282804
0	10869	99.863712068061	0.008221239396
0	10874	99.871933307457	0.045188980163
0	10879	99.91712228762	0.011548185472
0	10884	99.928670473092	0.000432133556
0	10886	99.929102606648	0.061836456954
0	10894	99.990939063602	0.016053466643
0	10899	100.006992530245	0.018708203621
0	10904	100.025700733866	0.016787641449
0	10909	100.042488375315	0.146486803902
0	10915	100.188975179217	0.006788812444
0	10917	100.195763991661	0.010084686536
0	10925	100.205848678197	0.029309892427
0	10930	100.235158570624	0.01726577262
0	10935	100.252424343244	0.187046073585
0	10941	100.439470416829	0.02311704746
0	10946	100.462587464289	0.003447629076
0	10948	100.466035093365	0.06646754793
0	10956	100.532502641295	0.03374814832
0	10961	100.566250789615	0.027896124156
0	10967	100.594146913771	0.038667746578
0	10972	100.632814660349	0.039245033073
0	10977	100.672059693422	0.026422653498
0	10983	100.69848234692	0.045411690891
0	10989	100.743894037811	0.01004634687
0	10994	100.753940384681	0.005192352018
0	10996	100.759132736699	0.02510002299
0	11004	100.784232759689	0.093372419767
0	11009	100.877605179456	0.035236452399
0	11015	100.912841631855	0.114888115853
0	11022	101.027729747708	0.105651437499
0	11028	101.133381185207	0.029504922884
0	11034	101.162886108091	0.102775703718
0	11040	101.265661811809	0.041832845625
0	11045	101.307494657434	0.064231845747
0	11050	101.371726503181	0.043966168968
0	11056	101.415692672149	0.024958277949
0	11061	101.440650950098	0.063997655041
0	11066	101.504648605139	0.049022938227
0	11071	101.553671543366	0.07312595268
0	11076	101.626797496046	0.011964976589
0	11081	101.638762472635	0.002807483764
0	11083	101.641569956399	0.059711635495
0	11091	101.701281591894	0.120506414849
0	11096	101.821788006743	0.032186807002
0	11103	101.853974813745	0.01973052969
0	11109	101.873705343435	0.059310668394
0	11114	101.933016011829	0.043673412319
0	11120	101.976689424148	0.042929972957
0	11126	102.019619397105	0.041546221275
0	11131	102.06116561838	0.001724754237
0	11133	102.062890372617	0.047751104318
0	11141	102.110641476935	0.057869087286
0	11147	102.168510564221	0.028918677182
0	11152	102.197429241403	0.00853668062
0	11157	102.205965922023	0.067960671429
0	11163	102.273926593452	0.001143136771
0	11165	102.275069730223	0.223803648806
0	11174	102.498873379029	0.003493173812
0	11176	102.502366552841	0.044634202646
0	11186	102.547000755487	0.063800506572
0	11192	102.610801262059	0.004529668786
0	11194	102.615330930845	0.090544059381
0	11202	102.705874990226	0.053406710757
0	11209	102.759281700983	0.134539186237
0	11215	102.89382088722	0.038313395868
0	11221	102.932134283088	0.042033850639
0	11226	102.974168133727	0.239599143289
0	11233	103.213767277016	0.017811011984
0	11238	103.231578289	0.125080660649
0	11244	103.356658949649	0.024937640824
0	11249	103.381596590473	0.046857572249
0	11255	103.428454162722	0.037971517182
0	11260	103.466425679904	0.019237065821
0	11265	103.485662745725	0.204450787258
0	11273	103.690113532983	0.052937483567
0	11279	103.74305101655	0.074425082768
0	11285	103.817476099318	0.002272000215
0	11287	103.819748099533	0.004970950788
0	11289	103.824719050321	0.018112885945
0	11303	103.842831936266	0.022011921766
0	11308	103.864843858032	0.032491191032
0	11314	103.897335049064	0.063245901103
0	11319	103.960580950167	0.063913999835
0	11324	104.024494950002	0.018337944382
0	11330	104.042832894384	0.089066338105
0	11335	104.131899232489	0.030699461867
0	11343	104.162598694356	0.074108089218
0	11350	104.236706783574	0.024233695521
0	11356	104.260940479095	0.001420828305
0	11358	104.2623613074	0.013390555493
0	11363	104.275751862893	0.005789130877
0	11368	104.28154099377	0.000554713956
0	11370	104.282095707726	0.053000595221
0	11382	104.335096302947	0.006952679013
0	11384	104.34204898196	0.091538567394
0	11393	104.433587549354	0.081539528123
0	11399	104.515127077477	0.138174967515
0	11405	104.653302044992	0.011997834606
0	11410	104.665299879598	0.043459678763
0	11415	104.708759558361	0.030842006326
0	11420	104.739601564687	0.041750231968
0	11425	104.781351796655	0.002826867827
0	11427	104.784178664482	0.050344041691
0	11436	104.834522706173	0.011639572998
0	11441	104.846162279171	0.024308853129
0	11446	104.8704711323	0.040856525956
0	11451	104.911327658256	0.053394569977
0	11456	104.964722228233	0.026791519086
0	11463	104.991513747319	0.052908946557
0	11469	105.044422693876	0.10263603682
0	11474	105.147058730696	0.17620476139
0	11479	105.323263492086	0.02495173566
0	11484	105.348215227746	0.014209679418
0	11489	105.362424907164	0.081453057197
0	11494	105.443877964361	0.0688468652
0	11499	105.512724829561	0.03764962547
0	11505	105.550374455031	0.051788312988
0	11510	105.602162768019	0.097624576344
0	11515	105.699787344363	0.066289955101
0	11521	105.766077299464	0.039735122384
0	11526	105.805812421848	0.040631447056
0	11532	105.846443868904	0.002922463367
0	11534	105.849366332271	0.066254194036
0	11542	105.915620526307	0.026630355522
0	11548	105.942250881829	0.043107393204
0	11554	105.985358275033	0.056267437985
0	11559	106.041625713018	0.043088761861
0	11565	106.084714474879	0.019202783149
0	11570	106.103917258028	0.070826582774
0	11575	106.174743840802	0.011985668979
0	11580	106.186729509781	0.047531435756
0	11585	106.234260945537	0.082619592283
0	11591	106.31688053782	0.050557629598
0	11596	106.367438167418	0.026402372834
0	11601	106.393840540252	0.028844348181
0	11606	106.422684888433	0.015353098803
0	11611	106.438037987236	0.008204726651
0	11616	106.446242713887	0.121251936259
0	11621	106.567494650146	0.021820769384
0	11626	106.58931541953	0.088273321137
0	11632	106.677588740667	0.036931486453
0	11637	106.71452022712	0.161789695242
0	11642	106.876309922362	0.088106847253
0	11647	106.964416769615	0.169476880534
0	11652	107.133893650149	0.003822485224
0	11654	107.137716135373	0.008909941573
0	11659	107.146626076946	0.009622989867
0	11665	107.156249066813	0.091807961212
0	11674	107.248057028025	0.079969438345
0	11679	107.32802646637	0.017383017631
0	11684	107.345409484001	0.004943020043
0	11686	107.350352504044	0.046615484422
0	11694	107.396967988466	0.010493211088
0	11700	107.407461199554	0.052963639695
0	11706	107.460424839249	0.003117976353
0	11708	107.463542815602	0.069223257963
0	11716	107.532766073565	0.067225269043
0	11721	107.599991342608	0.01253277448
0	11726	107.612524117088	0.041129632502
0	11731	107.65365374959	0.200619997435
0	11740	107.854273747025	0.051617032654
0	11745	107.905890779679	0.026166017693
0	11752	107.932056797372	0.038264758458
0	11757	107.97032155583	0.118849176609
0	11762	108.089170732439	0.008236927955
0	11767	108.097407660394	0.095419253072
0	11773	108.192826913466	0.010768608756
0	11779	108.203595522222	0.00973718043
0	11784	108.213332702652	0.074528454379
0	11792	108.287861157031	0.017654522529
0	11797	108.30551567956	0.048757490022
0	11802	108.354273169582	0.087319111573
0	11810	108.441592281155	0.035344958476
0	11817	108.476937239631	0.019982515137
0	11822	108.496919754768	0.009038521685
0	11827	108.505958276453	0.060109473604
0	11832	108.566067750057	0.100270727066
0	11837	108.666338477123	0.026213654585
0	11842	108.692552131708	0.044112091466
0	11847	108.736664223174	0.102921636625
0	11852	108.839585859799	0.01524828827
0	11857	108.854834148069	0.03040841832
0	11862	108.885242566389	0.026864024448
0	11867	108.912106590837	0.011206317006
0	11872	108.923312907843	0.066698458479
0	11878	108.990011366322	0.044158320045
0	11883	109.034169686367	0.23732455273
0	11888	109.271494239097	0.059433069011
0	11894	109.330927308108	0.024772692102
0	11899	109.35570000021	0.024485985994
0	11904	109.380185986204	0.010075621139
0	11909	109.390261607343	0.000792262427
0	11911	109.39105386977	0.005744295129
0	11913	109.396798164899	0.073351902985
0	11925	109.470150067884	6.4983135e-05
0	11927	109.470215051019	0.084384172898
0	11936	109.554599223917	0.089406422224
0	11941	109.644005646141	0.052019700046
0	11947	109.696025346187	0.000383894574
0	11949	109.696409240761	0.11877118079
0	11958	109.815180421551	0.00742690945
0	11961	109.822607331001	0.049948494916
0	11969	109.872555825917	0.057126725264
0	11974	109.929682551181	0.052962067393
0	11980	109.982644618574	0.049407724303
0	11985	110.032052342877	0.038754069931
[...]
19	27850	262.409246879212	1.8577237072806
19	28039	264.266970586493	0.95709550199632
19	28132	265.224066088489	0.4540986660832
19	28160	265.678164754572	1.3772282842573
19	28328	267.055393038829	1.856052127763
19	28519	268.911445166592	0.22288359091801
19	28545	269.13432875751	3.7517811533634
19	28999	272.886109910873	4.8386312957018
19	29465	277.724741206575	2.1891317294036
19	29716	279.913872935979	1.7063469415638
19	29904	281.620219877543	5.5730430794637
19	30409	287.193262957007	3.3406630647992
19	30838	290.533926021806	0.66966701688646
19	30912	291.203593038692	0.07274605570146
19	30916	291.276339094393	4.4652464134104
19	31392	295.741585507803	7.9991738072677
19	32169	303.740759315071	0.52187577294043
19	32232	304.262635088011	2.2523351519432
19	32473	306.514970239954	1.0204763370333
19	32578	307.535446576987	0.45548839674865
19	32634	307.990934973736	0.96237681396998
19	32739	308.953311787706	3.7034548996326
19	33152	312.656766687339	0.24135766373405
19	33160	312.898124351073	2.7670210811098
19	33476	315.665145432183	0.53944658454141
19	33555	316.204592016724	0.68193189534188
19	33634	316.886523912066	1.6464024146557
19	33820	318.532926326722	1.9195816512158
19	34039	320.452507977938	3.5417181742119
19	34447	323.99422615215	3.9776745548744
19	34810	327.971900707024	0.74755650187062
19	34905	328.719457208895	0.99144454870138
19	35004	329.710901757596	1.1573941675575
19	35066	330.868295925153	6.0560741044897
19	35728	336.924370029643	0.67389567521211
19	35816	337.598265704855	0.12558099605525
19	35837	337.72384670091	5.0229236880457
19	36310	342.746770388956	1.3267290299719
19	36446	344.073499418928	5.947675769949
19	37108	350.021175188877	1.4907598898781
19	37287	351.511935078755	2.3904057666495
19	37605	353.902340845405	0.53684431708316
19	37654	354.439185162488	0.60598606976484
19	37725	355.045171232253	1.0378845079128
19	37857	356.083055740166	3.3366474068063
19	38261	359.419703146972	2.9305730878897
19	38626	362.350276234862	0.24414958450629
19	38636	362.594425819368	0.98170993558257
19	38777	363.576135754951	4.5340768538463
19	39314	368.110212608797	0.26225305016231
19	39376	368.372465658959	2.0952869283402
19	39600	370.467752587299	1.1908217580265
19	39723	371.658574345326	4.5616586282511
19	40250	376.220232973577	1.7163589420706
19	40428	377.936591915648	3.0332460150888
19	40726	380.969837930737	1.3321960103955
19	40878	382.302033941133	3.4460459662083
19	41241	385.748079907341	0.54433994151196
19	41333	386.292419848853	4.7432244337002
19	41933	391.035644282553	0.48284040305662
19	41984	391.51848468561	6.4340967660211
19	42737	397.952581451631	0.69362702531342
19	42812	398.646208476944	0.21902259053889
19	42835	398.865231067483	0.24490351118945
19	42878	399.110134578672	6.1737772006662
20	1384	13.204232298134	0.44077549254584
20	1420	13.64500779068	0.098793069558597
20	1428	13.743800860239	1.6113095971558
20	1660	15.355110457395	3.7422642925209
20	2099	19.097374749916	2.4841907563894
20	2339	21.581565506305	1.3412169239291
20	2449	22.922782430234	5.6173703456056
20	3065	28.54015277584	3.5867757779241
20	3430	32.126928553764	0.077224584439472
20	3437	32.204153138203	0.14716100580526
20	3448	32.351314144008	4.4483961645792
20	4005	36.799710308587	0.80991510316186
20	4075	37.609625411749	0.92115412216519
20	4167	38.530779533914	0.087882438577832
20	4183	38.618661972492	0.34354114297106
20	4208	38.962203115463	1.7189947121416
20	4411	40.681197827605	1.682205675591
20	4606	42.363403503196	1.3082987933284
20	4743	43.671702296524	0.11920297892592
20	4756	43.79090527545	2.7427084403203
20	5041	46.53361371577	0.50366301614358
20	5121	47.037276731914	0.76460435973859
20	5149	47.801881091653	1.3148370261833
20	5299	49.116718117836	3.080383627615
20	5660	52.197101745451	5.2835709320283
20	6201	57.480672677479	1.6642097451497
20	6362	59.144882422629	4.2417085770734
20	6865	63.386590999702	0.059356595049298
20	6877	63.445947594751	0.73160240592574
20	6967	64.177550000677	1.0433132274451
20	7049	65.220863228122	3.8072534918289
20	7517	69.028116719951	3.1987025734598
20	7868	72.226819293411	1.7740145512355
20	8067	74.000833844647	0.80315153235257
20	8162	74.803985377	0.68481351094935
20	8279	75.488798887949	0.29930615414414
20	8307	75.788105042093	1.1891766445585
20	8430	76.977281686652	1.0825492737395
20	8558	78.059830960391	2.4708462874203
20	8830	80.530677247811	3.0262643685552
20	9136	83.556941616366	7.5794937955141
20	9965	91.13643541188	0.24665835746684
20	9997	91.383093769347	0.88145368447143
20	10108	92.264547453818	0.21070134294289
20	10126	92.475248796761	2.0274732863603
20	10346	94.502722083121	0.51550287696378
20	10392	95.018224960085	0.51695066896832
20	10440	95.535175629053	0.26138233934364
20	10466	95.796557968397	5.1714908858493
20	11020	100.968048854246	1.5785951213994
20	11185	102.546643975645	0.21108360135831
20	11208	102.757727577003	0.64179137946036
20	11254	103.399518956463	0.86131528012592
20	11355	104.260834236589	1.4857890400838
20	11520	105.746623276673	1.4337117827399
20	11673	107.180335059413	0.74940432654409
20	11751	107.929739385957	1.0443588378352
20	11877	108.974098223792	1.7823512865457
20	12082	110.756449510338	1.7136088907518
20	12270	112.47005840109	1.9545681712208
20	12439	114.424626572311	0.80393265468508
20	12534	115.228559226996	0.1142900317915
20	12550	115.342849258788	0.46641226840553
20	12613	115.809261527194	4.3013318446586
20	13081	120.110593371853	4.5686102182229
20	13543	124.679203590076	2.7505971714391
20	13805	127.429800761515	2.0735459784961
20	14004	129.503346740011	0.096016181703058
20	14025	129.599362921714	1.9187193570028
20	14242	131.518082278717	4.7598310299142
20	14812	136.277913308631	0.17852322127414
20	14846	136.456436529905	1.1506849692893
20	14953	137.607121499194	2.1448844353841
20	15156	139.752005934578	1.148428995235
20	15294	140.900434929813	1.4113861176184
20	15487	142.311821047431	3.9032905903301
20	15923	146.215111637761	7.7806388885043
20	16667	153.995750526265	1.9246906626321
20	16873	155.920441188897	3.2894580305268
20	17230	159.209899219424	0.015247564097424
20	17231	159.225146783521	2.0862182545197
20	17430	161.311365038041	3.936234526006
20	17833	165.247599564047	0.62034358626312
20	17935	165.86794315031	0.42662426803242
20	17972	166.294567418342	0.42667215788145
20	18016	166.721239576223	4.0851987835119
20	18424	170.806438359735	2.363740391171
20	18660	173.170178750906	1.3607116414549
20	18813	174.530890392361	4.3708805986093
20	19161	178.90177099097	0.18500895289997
20	19178	179.08677994387	0.30803283066267
20	19204	179.394812774533	1.1834281549178
20	19300	180.578240929451	1.5272662433376
20	19437	182.105507172789	1.6677628628839
20	19616	183.773270035673	0.10452511868171
20	19625	183.877795154355	0.087087074748444
20	19635	183.964882229103	0.69808296492094
20	19700	184.662965194024	1.4275913651901
20	19805	186.090556559214	0.32837023159247
20	19842	186.418926790806	0.51648353727303
20	19900	186.935410328079	3.5233972418694
20	20317	190.458807569948	0.096842962531953
20	20338	190.55565053248	2.5749247560386
20	20609	193.130575288519	2.2999914896626
20	20871	195.430566778182	2.5365178318437
20	21172	197.967084610026	0.45621992289397
20	21213	198.42330453292	1.8257041008415
20	21379	200.249008633762	1.1913880387648
20	21523	201.440396672527	0.25525428769259
20	21550	201.69565096022	1.0768958002961
20	21651	202.772546760516	0.52838065590306
20	21741	203.300927416419	4.5535062356808
20	22220	207.8544336521	3.5100581370819
20	22552	211.364491789182	2.470497973267
20	22735	213.834989762449	4.2146105759146
20	23118	218.049600338364	0.25963771164487
20	23155	218.309238050009	3.2116169981347
20	23525	221.520855048144	0.77992769747533
20	23587	222.300782745619	3.2885668042872
20	23936	225.589349549906	1.5952768063523
20	24092	227.184626356258	6.6629155225093
20	24751	233.847541878767	0.59154672608802
20	24810	234.439088604855	2.8934875430319
20	25130	237.332576147887	0.29818660187981
20	25157	237.630762749767	3.844864422764
20	25511	241.475627172531	0.39150530561555
20	25573	241.867132478147	2.0792271007759
20	25831	243.946359578923	0.53137395830745
20	25884	244.47773353723	9.0735064242344
20	26894	253.551239961464	2.6091366880061
20	27248	256.16037664947	1.9222418400199
20	27416	258.08261848949	2.6109098127771
20	27743	260.693528302267	0.83218577650644
20	27809	261.525714078773	0.24363094167005
20	27820	261.769345020443	0.31382623034895
20	27828	262.083171250792	1.5859685631181
20	27970	263.66913981391	0.3182852281097
20	28012	263.98742504202	2.0387370458527
20	28209	266.026162087873	0.81435272870338
20	28275	266.840514816576	5.2348661323479
20	28919	272.075380948924	1.6493729366455
20	29080	273.72475388557	1.2688723229535
20	29180	274.993626208524	3.3114373392237
20	29533	278.305063547748	2.4951880961742
20	29815	280.800251643922	1.915544433827
20	30006	282.715796077749	0.25594947998357
20	30031	282.971745557733	4.3313471724473
20	30425	287.30309273018	2.2160586277288
20	30690	289.519151357909	2.4384288772137
20	30989	291.957580235123	1.3417650717727
20	31139	293.299345306896	5.9496838847579
20	31752	299.249029191654	0.89624504782744
20	31822	300.145274239481	2.2925769221068
20	32043	302.437851161588	0.47690953221332
20	32099	302.914760693801	0.027532323543593
20	32105	302.942293017345	0.69654556577068
20	32165	303.638838583116	0.023321346608507
20	32166	303.662159929725	5.1390394157702
20	32726	308.801199345495	0.15964052260153
20	32740	308.960839868097	2.1668862823386
20	32943	311.127726150436	0.40690339782867
20	33003	311.534629548265	2.395280895734
20	33283	313.929910443999	0.20893926315955
20	33300	314.138849707159	1.9081115851691
20	33543	316.046961292328	2.38563607035
20	33806	318.432597362678	4.7361039599477
20	34352	323.168701322626	0.58225109713928
20	34428	323.750952419765	2.7992954400371
20	34632	326.550247859802	6.1819451061145
20	35281	332.732192965917	0.53702837927495
20	35337	333.269221345192	0.57877246752995
20	35395	333.847993812722	0.62604679891468
20	35442	334.474040611637	5.5805629181287
20	36033	340.054603529766	2.0961488420188
20	36274	342.150752371785	1.3614544000336
20	36399	343.512206771819	1.5726414708702
20	36537	345.084848242689	0.065554143029989
20	36538	345.150402385719	6.7764955817681
20	37350	351.926897967487	0.86022242110577
20	37472	352.787120388593	0.59924215524802
20	37554	353.386362543841	0.51935993139112
20	37606	353.905722475232	1.3982937470804
20	37749	355.304016222312	1.1294089187798
20	37898	356.433425141092	2.7108771571021
20	38229	359.144302298194	4.9963940674769
20	38823	364.140696365671	1.7024311422809
20	39046	365.843127507952	1.9925245054887
20	39274	367.835652013441	1.4741222393401
20	39498	369.309774252781	1.6554410851371
20	39633	370.965215337918	1.3478897334158
20	39785	372.313105071334	2.2209752865105
20	40055	374.534080357844	0.60044685759551
20	40105	375.13452721544	0.30795256056242
20	40149	375.442479776002	1.4105723821317
20	40311	376.853052158134	1.4049877545067
20	40487	378.258039912641	0.44194189894589
20	40521	378.699981811587	3.3834512583532
20	40843	382.08343306994	1.5267482343562
20	40969	383.610181304296	0.17385472707753
20	40997	383.784036031374	0.37492801900149
20	41030	384.158964050375	1.0474814939044
20	41143	385.206445544279	1.7321396783576
20	41440	386.938585222637	1.0767035886537
20	41573	388.015288811291	2.8873035000364
20	41920	390.902592311327	2.1092714371883
20	42206	393.011863748515	3.5987251337633
20	42639	396.610588882278	1.7087980494612
20	42785	398.319386931739	12.591240558451
21	2034	18.599085828996	1.0769246910411
21	2174	19.676010520037	0.116716857094
21	2183	19.792727377131	0.43549199661111
21	2222	20.228219373742	1.2418067931855
21	2320	21.470026166928	0.09933228671655
21	2336	21.569358453645	0.20230242222558
21	2345	21.771660875871	3.27646197386
21	2665	25.048122849731	1.6211459941932
21	2851	26.669268843924	0.48633021752679
21	2900	27.155599061451	4.1443754237004
21	3333	31.299974485151	3.104620485809
21	3700	34.40459497096	0.52831881551004
21	3766	34.93291378647	0.2333196802086
21	3792	35.166233466679	0.39297855754875
21	3868	35.559212024228	0.6591584373422
21	3942	36.21837046157	4.0933337572401
21	4362	40.31170421881	2.5372896743806
21	4652	42.848993893191	0.13297640245547
21	4678	42.981970295646	0.10204548768517
21	4693	43.084015783331	1.1628856956888
21	4808	44.24690147902	6.1407420469727
21	5412	50.387643525993	0.21128912894137
21	5437	50.598932654934	0.015723189993071
21	5445	50.614655844927	0.40417323174921
21	5517	51.018829076676	2.1183156122765
21	5733	53.137144688952	1.0109869551328
21	5846	54.148131644085	0.35563711067352
21	5888	54.503768754759	5.0496005619756
21	6402	59.553369316735	3.034700220874
21	6794	62.588069537609	0.18157210165571
21	6812	62.769641639265	2.0950995446311
21	7023	64.864741183896	0.34150808681702
21	7048	65.206249270713	0.55662161083701
21	7087	65.76287088155	2.7122490168053
21	7448	68.475119898355	1.6151346504704
21	7634	70.090254548825	1.551433164136
21	7788	71.641687712961	3.0706288002064
21	8155	74.712316513167	3.2825981710211
21	8557	77.994914684188	1.3547445183084
21	8729	79.349659202496	0.075825032499149
21	8742	79.425484234995	3.8351599572576
21	9104	83.260644192253	0.49951693786754
21	9178	83.760161130121	1.3885163783857
21	9324	85.148677508507	0.10114659596418
21	9340	85.249824104471	0.65862262652286
21	9400	85.908446730994	0.028827438244428
21	9404	85.937274169238	1.2753136533713
21	9533	87.212587822609	2.9921516897346
21	9857	90.204739512344	3.3900595232115
21	10254	93.594799035555	0.28724583442186
21	10267	93.882044869977	0.43576327483115
21	10319	94.317808144808	1.4809733240014
21	10467	95.798781468809	2.0578307641684
21	10690	97.856612232977	4.669979463016
21	11184	102.526591695993	1.6120001165401
21	11337	104.138591812533	0.84388657017282
21	11461	104.982478382706	0.95876156113872
21	11547	105.941239943845	0.34649157555072
21	11590	106.287731519396	1.9086011933902
21	11775	108.196332712786	0.055927648834049
21	11790	108.25226036162	3.8037145628791
21	12219	112.055974924499	2.9393101283825
21	12503	114.995285052882	0.9823348844636
21	12639	115.977619937346	1.2898099509736
21	12785	117.26742988832	1.8480629400754
21	12998	119.115492828395	0.63053294735159
21	13048	119.746025775747	2.5707095624326
21	13309	122.31673533818	0.96461261231621
21	13426	123.281347950496	0.017395439493549
21	13432	123.29874338999	0.95377803617036
21	13500	124.25252142616	4.9713040419161
21	13967	129.223825468076	0.1809899472906
21	13997	129.404815415367	0.32650920692313
21	14048	129.73132462229	1.1766933794899
21	14166	130.90801800178	2.0992577842769
21	14401	133.007275786057	0.44404352823088
21	14449	133.451319314288	9.2565111588288
21	15529	142.707830473117	0.47364672309796
21	15571	143.181477196215	2.8856124499492
21	15906	146.067089646164	2.680691102375
21	16162	148.747780748539	3.4500234393356
21	16502	152.197804187875	3.1703482878803
21	16820	155.368152475755	0.048190003787368
21	16826	155.416342479542	4.9669009792585
21	17336	160.383243458801	3.8371477261444
21	17725	164.220391184945	6.5382370320431
21	18418	170.758628216988	2.2764344820687
21	18649	173.035062699057	1.5838782901105
21	18814	174.618940989168	0.66283807706592
21	18890	175.281779066234	0.65565731239105
21	18940	175.937436378625	2.0468821519668
21	19087	177.984318530592	2.5753755785181
21	19299	180.55969410911	1.7667578700429
21	19455	182.326451979153	2.5845759555116
21	19732	184.911027934665	0.66735859976291
21	19764	185.578386534428	0.13790554570074
21	19771	185.716292080129	4.8620115872507
21	20339	190.57830366738	6.1208819708021
21	21017	196.699185638182	0.12448897231595
21	21018	196.823674610498	2.4146918139527
21	21269	199.238366424451	12.286265545748
21	22576	211.524631970199	2.8111175539473
21	22786	214.335749524146	2.2058788045189
21	22984	216.541628328665	0.18081947883071
21	23002	216.722447807496	1.6023712382644
21	23156	218.32481904576	5.3990642079609
21	23746	223.723883253721	0.65174174754383
21	23819	224.375625001265	1.5577071918094
21	23970	225.933332193074	0.40903146368748
21	24003	226.342363656761	1.1199823223573
21	24110	227.462345979118	1.0090042692796
21	24197	228.471350248398	1.690318634223
21	24379	230.161668882621	1.2304469564167
21	24480	231.392115839038	0.89335846963153
21	24580	232.28547430867	2.2447652613355
21	24821	234.530239570006	1.2562313895468
21	24983	235.786470959553	3.7371041742239
21	25327	239.523575133777	1.1682079039249
21	25433	240.691783037702	1.6053702445313
21	25627	242.297153282233	2.6505011940206
21	25920	244.947654476254	1.301945362731
21	26072	246.249599838985	0.14330505511789
21	26093	246.392904894103	4.5080311318381
21	26611	250.900936025941	0.94860858720559
21	26710	251.849544613147	1.1274761847219
21	26839	252.977020797869	2.8261908698983
21	27186	255.803211667767	4.0722248240837
21	27635	259.875436491851	2.8089956608755
21	27871	262.684432152726	1.1974926926205
21	27996	263.881924845347	0.50443561877748
21	28043	264.386360464124	9.2765996909306
21	29079	273.662960155055	0.39094582672262
21	29083	274.053905981778	1.0853073837182
21	29193	275.139213365496	1.5279542110139
21	29362	276.66716757651	2.0689764740759
21	29587	278.736144050586	0.5279595265123
21	29650	279.264103577098	1.9298414119337
21	29854	281.193944989032	0.97880072364148
21	29963	282.172745712673	0.61380856070504
21	30019	282.786554273378	6.8274247971038
21	30694	289.613979070482	0.53983728712484
21	30775	290.153816357607	1.5117227788048
21	30950	291.665539136412	0.023266991531798
21	30957	291.688806127944	0.092518493131399
21	30965	291.781324621075	3.0098375184762
21	31302	294.791162139551	2.4796612022548
21	31537	297.270823341806	0.49390027550102
21	31577	297.764723617307	4.0044125237174
21	31983	301.769136141024	5.6561128086639
21	32552	307.425248949688	1.4942086862487
21	32738	308.919457635937	0.43108937445834
21	32787	309.350547010395	1.7885524537742
21	32946	311.139099464169	1.9330476430994
21	33191	313.072147107268	1.1211204767142
21	33311	314.193267583982	4.1708656337494
21	33798	318.364133217731	0.2518223621575
21	33828	318.615955579889	0.064627280467482
21	33840	318.680582860356	0.58637274395024
21	33897	319.266955604306	5.6045085274617
21	34505	324.871464131768	3.6179241283915
21	34864	328.489388260159	2.3208461254581
21	35065	330.810234385617	0.082085730726193
21	35067	330.892320116343	7.5451248394696
21	35911	338.437444955813	1.534815243254
21	36031	339.972260199067	0.3716659840543
21	36055	340.343926183121	2.9403294665233
21	36377	343.284255649644	0.39515320306192
21	36405	343.679408852706	2.9937993842888
21	36743	346.673208236995	0.67598319331163
21	36806	347.349191430307	0.18410725743046
21	36840	347.533298687737	0.38167234424635
21	36884	347.914971031983	3.5472751585507
21	37285	351.462246190534	0.18130594461668
21	37314	351.643552135151	0.50887793328459
21	37404	352.152430068436	0.12460774298678
21	37422	352.277037811423	0.38244408261445
21	37463	352.659481894037	0.60234881524559
21	37538	353.261830709283	8.234394627721
21	38508	361.496225337004	0.070841945750852
21	38519	361.567067282755	0.075252915626794
21	38540	361.642320198382	0.27778444943172
21	38575	361.920104647814	0.14625528084893
21	38589	362.066359928663	6.8991137493036
21	39458	368.965473677967	0.38097098945279
21	39507	369.34644466742	4.5218479978317
21	39996	373.868292665252	1.0337029106434
21	40079	374.901995575895	4.1464908161905
21	40548	379.048486392085	0.40093284265991
21	40583	379.449419234745	1.5973314536521
21	40744	381.046750688397	0.25975462951167
21	40770	381.306505317909	1.5554101985279
21	40928	382.861915516437	0.79811349931065
21	40981	383.660029015748	1.874859741937
21	41197	385.534888757685	0.210947199958
21	41238	385.745835957643	1.5050955990981
21	41470	387.250931556741	0.36199511212262
21	41536	387.612926668864	1.6782912463761
21	41725	389.29121791524	0.96321929379607
21	41853	390.254437209036	3.9388346329726
21	42333	394.193271842009	1.5437611670793
21	42537	395.737033009088	0.19969841230674
21	42568	395.936731421395	1.4298009332856
21	42688	397.366532354681	0.54413730614794
21	42726	397.910669660829	4.3232790297499

