version 2
run Nonmonitoring-exponential-561-20210224-17:49:32-27085
attr configname Nonmonitoring-exponential
attr datetime 20210224-17:49:32
attr experiment Nonmonitoring-exponential
attr inifile aerocom.ini
attr iterationvars $0=50
attr iterationvarsf 50-
attr measurement $0=50
attr network Aerocom
attr processid 27085
attr repetition 61
attr replication #61
attr resultdir results
attr runnumber 561
attr seedset 61
param **.t 2s
param **.k 50ms
param **.X 0.05s
param **.m 1s
param **.tDistribution "\"exponential\""
param **.operationMode 1
param **.s "70 byte"
param **.dimPoolMax 10000
param **.dimPoolMin 8000
param **.nDL 16
param **.nA 1
param **.DLMaxCapacity 0
param **.trasmitting false

vector 0 Aerocom.aircraft[0].linkSelector responseTime:vector ETV
attr "" ""
attr source computeResponseTime
vector 1 Aerocom.aircraft[0].dataLink[2] tDistribution:vector ETV
attr "" ""
attr source computeTDistribution
vector 2 Aerocom.aircraft[0].packetGenerator arrivalTime:vector ETV
attr "" ""
attr source computeArrivalTime
vector 3 Aerocom.aircraft[0].linkSelector waitingTime:vector ETV
attr "" ""
attr source computeWaitingTime
vector 4 Aerocom.aircraft[0].linkSelector queueLength:vector ETV
attr "" ""
attr source computeQueueLength
vector 5 Aerocom.aircraft[0].dataLink[5] actualCapacity:vector ETV
attr "" ""
attr source computeActualCapacity
vector 6 Aerocom.aircraft[0].linkSelector serviceTime:vector ETV
attr "" ""
attr source computeServiceTime
vector 7 Aerocom.aircraft[0].dataLink[10] tDistribution:vector ETV
attr "" ""
attr source computeTDistribution
vector 8 Aerocom.aircraft[0].dataLink[1] tDistribution:vector ETV
attr "" ""
attr source computeTDistribution
vector 9 Aerocom.aircraft[0].dataLink[13] tDistribution:vector ETV
attr "" ""
attr source computeTDistribution
vector 10 Aerocom.aircraft[0].dataLink[15] tDistribution:vector ETV
attr "" ""
attr source computeTDistribution
vector 11 Aerocom.aircraft[0].dataLink[5] tDistribution:vector ETV
attr "" ""
attr source computeTDistribution
vector 12 Aerocom.aircraft[0].dataLink[8] tDistribution:vector ETV
attr "" ""
attr source computeTDistribution
vector 13 Aerocom.aircraft[0].dataLink[0] tDistribution:vector ETV
attr "" ""
attr source computeTDistribution
vector 14 Aerocom.aircraft[0].dataLink[12] tDistribution:vector ETV
attr "" ""
attr source computeTDistribution
vector 15 Aerocom.aircraft[0].dataLink[4] tDistribution:vector ETV
attr "" ""
attr source computeTDistribution
vector 16 Aerocom.aircraft[0].dataLink[7] tDistribution:vector ETV
attr "" ""
attr source computeTDistribution
vector 17 Aerocom.aircraft[0].dataLink[6] tDistribution:vector ETV
attr "" ""
attr source computeTDistribution
vector 18 Aerocom.aircraft[0].dataLink[11] tDistribution:vector ETV
attr "" ""
attr source computeTDistribution
vector 19 Aerocom.aircraft[0].dataLink[14] tDistribution:vector ETV
attr "" ""
attr source computeTDistribution
vector 20 Aerocom.aircraft[0].dataLink[3] tDistribution:vector ETV
attr "" ""
attr source computeTDistribution
vector 21 Aerocom.aircraft[0].dataLink[9] tDistribution:vector ETV
attr "" ""
attr source computeTDistribution
0	1116	10.001945130242	0.008452064719
0	1122	10.055908189311	0.0084643289
0	1128	10.133097524108	0.008481764207
0	1134	10.177048412317	0.008492053864
0	1142	10.307367246736	0.008522035549
0	1145	10.315891357793	0.008716732899
0	1150	10.40168340499	0.008543878921
0	1158	10.554520967761	0.00857948278
0	1163	10.565654591825	0.008581586368
0	1168	10.604088047149	0.008591065292
0	1175	10.689304351782	0.008611145282
0	1180	10.697917616209	0.0169428812
0	1183	10.706533000824	0.016974935344
0	1191	10.802099828729	0.008637709773
0	1196	10.810739670743	0.013604422723
0	1201	10.819381646052	0.016046598573
0	1204	10.828025755709	0.013729474148
0	1210	10.854875928668	0.008650519031
0	1215	10.881140715126	0.008655867442
0	1223	10.984060921132	0.008660150934
0	1226	10.992716788574	0.015731514541
0	1233	11.141511282193	0.008574228319
0	1238	11.221187317372	0.008531383303
0	1247	11.283504411552	0.00849823965
0	1250	11.291998526344	0.011366761891
0	1255	11.300819778736	0.008489993936
0	1260	11.33324724474	0.008472524812
0	1265	11.355819765695	0.008460236887
0	1270	11.373465198122	0.008451044308
0	1278	11.413345812215	0.008430687703
0	1281	11.421771426081	0.014252909629
0	1288	11.482576105195	0.008394291882
0	1293	11.5949015357	0.008337303478
0	1298	11.745629868917	0.008260561718
0	1303	11.794825692575	0.00823626309
0	1308	11.857040789784	0.008205368655
0	1313	11.881830997926	0.008193842912
0	1323	12.048157754109	0.007598784195
0	1332	12.111474142164	0.007306889353
0	1335	12.118748380967	0.011375441043
0	1342	12.188628212026	0.007150153218
0	1347	12.311329742348	0.007163323782
0	1352	12.341884579077	0.007166990888
0	1357	12.364490367587	0.007169192954
0	1363	12.422408008744	0.007175807278
0	1368	12.440713313213	0.007178014766
0	1373	12.486491269756	0.007183170857
0	1380	12.66711060369	0.007203128216
0	1383	12.674314473197	0.013726462455
0	1388	12.681935683227	0.007204610951
0	1397	12.713356517793	0.007208320461
0	1402	12.720565580615	0.010144173072
0	1407	12.72777538595	0.017043499882
0	1410	12.734985933952	0.017753107777
0	1413	12.742197224773	0.021580537624
0	1418	12.883675763167	0.007227671657
0	1423	12.902428649569	0.007229911175
0	1428	12.921947070309	0.007232152082
0	1433	12.961526712874	0.007236638065
0	1440	13.038115524683	0.007244876837
0	1443	13.04536115143	0.014431899331
0	1448	13.113432540464	0.00725388601
0	1453	13.126421811411	0.007255389718
0	1458	13.143955513947	0.007256894049
0	1463	13.152039804194	0.007258399005
0	1468	13.172255871043	0.007260657608
0	1474	13.2183080207	0.007265933153
0	1480	13.295149977108	0.007274238803
0	1485	13.311256773112	0.007276507277
0	1492	13.32420415238	0.007278020378
0	1495	13.331482929545	0.013387085806
0	1500	13.346418038784	0.007280291212
0	1505	13.481310054004	0.007295466389
0	1510	13.496746387357	0.007297748123
0	1517	13.555383288741	0.007304601899
0	1520	13.562688652966	0.007773629982
0	1525	13.624515775316	0.00731223232
0	1532	13.654918392719	0.007316053512
0	1535	13.662235210948	0.013927565143
0	1540	13.696593930674	0.007320644217
0	1546	13.711663274223	0.007322175732
0	1552	13.769593774615	0.007329075489
0	1559	14.022004552635	0.007358351729
0	1564	14.049250037748	0.007362221287
0	1569	14.10135099765	0.007367645511
0	1577	14.248282730626	0.007385524372
0	1580	14.255669034309	0.011980558256
0	1589	14.721301606749	0.007441267141
0	1595	14.851664311668	0.007457121551
0	1604	14.993158919092	0.007474639616
0	1609	15.000634356939	0.013395335471
0	1614	15.008110593188	0.012490470937
0	1617	15.01558762801	0.013732757225
0	1622	15.040917893179	0.007480230819
0	1629	15.064185997881	0.00748262961
0	1632	15.07166942743	0.008664956909
0	1637	15.130284756229	0.007490636704
0	1642	15.168838549493	0.007495449192
0	1648	15.384378472361	0.007522028799
0	1653	15.39696287597	0.007523645744
0	1658	15.435535588877	0.007528500753
0	1663	15.480261685694	0.007533362032
0	1668	15.520139966868	0.007538229593
0	1673	15.542409829665	0.00754147813
0	1679	15.626957390485	0.007552055238
0	1686	15.776522428537	0.00757002271
0	1691	15.811125437343	0.007574118156
0	1696	15.825663140167	0.007576577552
0	1701	15.876364323243	0.007582322357
0	1706	15.910012523922	0.007586431126
0	1711	16.016327343633	0.007600434311
0	1716	16.064579153752	0.007606215365
0	1721	16.091111301488	0.007609522774
0	1728	16.163423332502	0.007618633
0	1733	16.190249364263	0.00762195122
0	1738	16.214646415931	0.007625272331
0	1743	16.36202870737	0.007643590304
0	1748	16.437289751087	0.007652782333
0	1753	16.463800635932	0.007656130373
0	1758	16.490201221409	0.007659481344
0	1763	16.61508033689	0.007675438596
0	1770	16.658298726303	0.007681334358
0	1780	16.795738388361	0.007732243455
0	1783	16.803490326345	0.009442766652
0	1790	16.814935208903	0.007780371235
0	1793	16.8227346518	0.008669054348
0	1799	16.881044884625	0.007949125596
0	1806	17.105915730978	0.008312551953
0	1812	17.211344685356	0.008226583617
0	1818	17.234849870379	0.008208255159
0	1823	17.302306171489	0.008153756552
0	1828	17.310557460351	0.008148061925
0	1833	17.459991800962	0.008031206976
0	1840	17.621330138388	0.00790871088
0	1846	17.715586719733	0.007839623698
0	1851	17.786912051601	0.007787295583
0	1856	17.859429451305	0.007735661399
0	1861	17.986322175936	0.00764609503
0	1866	18.01791763504	0.007623611414
0	1871	18.146899933169	0.007535795026
0	1878	18.374279898544	0.007384745226
0	1883	18.382956892675	0.007379295804
0	1891	18.516985460307	0.00729318608
0	1894	18.524274090045	0.008247414658
0	1900	18.541415900338	0.007278020378
0	1907	18.588996123167	0.007247877407
0	1911	18.59623950065	0.008688477816
0	1918	18.663304351999	0.007226925459
0	1923	18.684201190488	0.007232152082
0	1928	18.72356160268	0.00724187875
0	1933	18.738145794465	0.007245626747
0	1938	18.747637140568	0.007248627938
0	1943	18.835475995079	0.007270461155
0	1948	18.843351128605	0.007272727273
0	1953	18.865558230533	0.007278020378
0	1958	19.001400441846	0.00731223232
0	1963	19.038225285435	0.007322175732
0	1971	19.077471255886	0.007332146224
0	1976	19.084804938442	0.010964603042
0	1979	19.092140926704	0.012213170164
0	1985	19.167485469598	0.00735525901
0	1990	19.208690407216	0.007366094917
0	2001	19.439817082526	0.00742626777
0	2010	19.449615289417	0.00742863207
0	2015	19.457046287294	0.011235995909
0	2018	19.464478863212	0.016917219119
0	2021	19.47191380745	0.021012702802
0	2029	19.60110650986	0.007469056765
0	2034	19.609050639915	0.007471448394
0	2041	19.621481799769	0.007474639616
0	2044	19.628958036018	0.014722168863
0	2049	19.64638189385	0.007481030245
0	2054	19.680081084596	0.007490636704
0	2060	19.708739478806	0.007497857755
0	2065	19.781746677074	0.007517989475
0	2072	19.892355933383	0.00754798361
0	2078	19.975059893427	0.00757002271
0	2083	19.985040995434	0.007573298713
0	2089	20.077490059163	0.007598784195
0	2094	20.08648541024	0.007601259637
0	2100	20.126482491367	0.00761200522
0	2107	20.143827222103	0.007616974973
0	2110	20.151445855103	0.011838379728
0	2115	20.190573429937	0.007629427793
0	2122	20.20409877174	0.007633587786
0	2125	20.211734024794	0.009147349597
0	2130	20.307262270803	0.007661996497
0	2136	20.373424817855	0.007681334358
0	2142	20.4528750471	0.007703312424
0	2148	20.466572389447	0.007707553402
0	2153	20.528960989102	0.007725416621
0	2158	20.554403566586	0.007732243455
0	2163	20.675308176727	0.007767421216
0	2168	20.710727036038	0.007776913676
0	2174	20.791353237203	0.007800312012
0	2179	20.836258891628	0.007813372028
0	2184	20.844915054362	0.007815989281
0	2190	20.952622765126	0.007847533632
0	2195	20.967711662644	0.007851934941
0	2201	21.01006172583	0.007865168539
0	2206	21.085126847621	0.007887323944
0	2211	21.10886522813	0.007894440059
0	2216	21.133746169031	0.007901569026
0	2226	21.356171413773	0.00796812749
0	2229	21.364142263238	0.008974095379
0	2236	21.410906836299	0.007985398129
0	2239	21.418894056746	0.015273800884
0	2244	21.436216060195	0.007992692396
0	2250	21.517171901783	0.008017409231
0	2255	21.555689750547	0.008029364533
0	2260	21.590560976618	0.008040431886
0	2265	21.603767869227	0.008044127787
0	2270	21.626530102195	0.008051529791
0	2275	21.653278878152	0.008059873345
0	2281	21.727869677473	0.008083140878
0	2287	21.868763443874	0.008127249507
0	2292	21.910010365765	0.008140481451
0	2298	22.058321940894	0.008187134503
0	2303	22.142205925012	0.008214034264
0	2308	22.178712585764	0.008226583617
0	2318	22.430384079218	0.008265438659
0	2323	22.441103704217	0.008262511804
0	2332	22.580162353598	0.00821499824
0	2337	22.58837446059	0.015342139326
0	2340	22.596583678369	0.008635808432
0	2345	22.612921916338	0.008204406939
0	2350	22.651277109041	0.008190966534
0	2355	22.704528687592	0.008173750584
0	2360	22.722474652849	0.00816707502
0	2365	22.768211146088	0.008151857459
0	2371	22.846693435319	0.008126306013
0	2376	22.869954954445	0.008118765948
0	2381	22.94318655498	0.008094357077
0	2386	22.975896675347	0.008084074373
0	2391	23.009558740309	0.008072886634
0	2396	23.065560610423	0.008055235903
0	2403	23.13441948055	0.008033050264
0	2408	23.148356512333	0.008028443629
0	2414	23.156943674879	0.008025682183
0	2420	23.26734084011	0.007989955485
0	2427	23.288381486583	0.007983576642
0	2430	23.296362332553	0.012606283527
0	2435	23.359261983292	0.007960877971
0	2440	23.414518699018	0.007943713118
0	2447	23.447431096074	0.007932910245
0	2452	23.455362208696	0.015570473626
0	2455	23.46329062641	0.015735077794
0	2460	23.54064280346	0.007904245709
0	2467	23.564339976349	0.007897111913
0	2470	23.572234416408	0.009040735198
0	2475	23.586469102003	0.007889990983
0	2481	23.63055292597	0.007875787579
0	2486	23.700312789062	0.007854578097
0	2491	23.724290447377	0.007847533632
0	2497	23.761117832095	0.007836113288
0	2502	23.775016444145	0.007831729693
0	2508	24.165853372404	0.007714348689
0	2517	24.247528210109	0.007690617447
0	2522	24.25521629358	0.008841296556
0	2525	24.262902688661	0.009404930839
0	2532	24.27250086942	0.007683863886
0	2539	24.280183046769	0.009616623006
0	2542	24.287862695699	0.014453005559
0	2547	24.295540659942	0.021514781468
0	2550	24.303216940236	0.01492569966
0	2555	24.338859556971	0.007667031763
0	2561	24.415715129187	0.007646930304
0	2566	24.429889066879	0.007643590304
0	2571	24.51660076433	0.007621121394
0	2576	24.616674760923	0.007595486111
0	2582	24.640389803288	0.007589721349
0	2587	24.769590207967	0.007556946993
0	2592	24.780200190752	0.007554500324
0	2598	24.811075791868	0.007546356188
0	2603	24.823948160477	0.007543103448
0	2610	24.842767535106	0.007539041465
0	2613	24.85030414148	0.014495575577
0	2618	24.867097207723	0.007532551383
0	2623	24.976975278895	0.007505092742
0	2629	24.990092275855	0.007501875469
0	2634	25.059431776081	0.00748502994
0	2639	25.08709838374	0.007478632479
0	2646	25.129146188089	0.007468259895
0	2649	25.136612058396	0.008014011684
0	2655	25.262199152737	0.007435734013
0	2662	25.284040119194	0.007430209107
0	2665	25.291468751264	0.007490130862
0	2671	25.309065930721	0.007423904974
0	2677	25.40938092389	0.007399577167
0	2682	25.472452190636	0.007384745226
0	2690	25.49276936738	0.007380073801
0	2693	25.500147885352	0.012392567981
0	2698	25.526331272322	0.007371524853
0	2705	25.579600648937	0.007359125315
0	2708	25.586958227243	0.014396151525
0	2714	25.677183975238	0.007335988262
0	2719	25.706410836728	0.007329075489
0	2724	25.745328611155	0.007319878699
0	2729	25.807046107451	0.007305364225
0	2734	25.937611917381	0.007274994804
0	2739	25.978868141933	0.007265179035
0	2746	26.028755875512	0.00725388601
0	2749	26.036008258438	0.009531744539
0	2755	26.13134518531	0.007229911175
0	2760	26.16439034923	0.007222451506
0	2767	26.179410910849	0.007219471947
0	2770	26.18662814974	0.009596132818
0	2775	26.21790655	0.007210548002
0	2781	26.284100966271	0.007195723684
0	2787	26.300829627285	0.007191288268
0	2792	26.328487851189	0.007185382878
0	2799	26.360013882016	0.007178014766
0	2804	26.367190424973	0.008621281287
0	2807	26.374365496724	0.009775131536
0	2815	26.503855626085	0.007145773785
0	2818	26.510999941251	0.010087728978
0	2823	26.543144603154	0.007137030995
0	2829	26.660178294049	0.007110930516
0	2834	26.754875505701	0.007090043553
0	2841	26.795934834139	0.00708072021
0	2845	26.803014122165	0.009036046569
0	2850	26.837419144398	0.007071421356
0	2856	26.873536092119	0.007114544161
0	2861	26.88798725549	0.007215750954
0	2866	26.928649902854	0.007517182131
0	2872	27.07569179802	0.008620689655
0	2877	27.189196472105	0.008628127696
0	2885	27.288987873233	0.008633448446
0	2888	27.297622386616	0.010550476257
0	2893	27.443366735235	0.008644109657
0	2899	27.611667193991	0.00865479723
0	2904	27.622369476892	0.00865479723
0	2909	27.649132989758	0.008656937917
0	2914	27.660926150453	0.008656937917
0	2919	27.728637088043	0.008662294271
0	2925	27.803563439401	0.008666584128
0	2930	27.827690097294	0.008667657256
0	2935	27.84986593333	0.00866980431
0	2942	27.890326974139	0.008671952428
0	2947	27.943618955909	0.008675176602
0	2952	27.952670246244	0.008676251859
0	2957	28.003372305135	0.008679479231
0	2962	28.019383773749	0.008680555556
0	2970	28.10853387799	0.008685941184
0	2973	28.117220897101	0.009763099252
0	2982	28.207518514033	0.008692412765
0	2987	28.232803871794	0.0086934923
0	2992	28.342596872606	0.008701056557
0	2997	28.386862533985	0.008703220191
0	3002	28.443450753649	0.00870755069
0	3010	28.56625735026	0.008711885501
0	3016	28.690132825041	0.008708633989
0	3022	28.819127363072	0.008706467662
0	3028	28.964451886033	0.008703220191
0	3033	29.017879346967	0.00870213824
0	3039	29.048660085736	0.00870213824
0	3044	29.060890819562	0.00870213824
0	3050	29.085241481296	0.008701056557
0	3055	29.111431487466	0.008701056557
0	3062	29.123026080112	0.008699975143
0	3065	29.131726055255	0.014985116887
0	3070	29.180861964495	0.008698893998
0	3075	29.220185059889	0.008698893998
0	3081	29.272732751799	0.008697813121
0	3086	29.304309159305	0.008696732513
0	3091	29.338470842812	0.008695652174
0	3098	29.486790078077	0.0086934923
0	3103	29.50931365996	0.008692412765
0	3108	29.588584202261	0.008691333499
0	3113	29.60277921814	0.0086902545
0	3124	29.685108719558	0.00868917577
0	3127	29.693797895328	0.013012196288
0	3132	29.740465672006	0.008688097307
0	3139	29.762308382804	0.008687019111
0	3142	29.770995401915	0.015106843045
0	3147	29.855673918969	0.008685941184
0	3152	29.907347213048	0.008684863524
0	3157	30.056078449689	0.008681632147
0	3163	30.143667993846	0.008673026886
0	3171	30.372113077549	0.008346250149
0	3176	30.383829996925	0.008330358205
0	3182	30.492283218226	0.008184262832
0	3188	30.523725998572	0.008143322476
0	3194	30.592589107505	0.008053382421
0	3200	30.705728660999	0.007911392405
0	3207	30.777045658692	0.00782385157
0	3210	30.784860775361	0.007944189906
0	3215	30.838859848151	0.007750221435
0	3223	30.923718677028	0.007651109411
0	3226	30.931360598425	0.012456702415
0	3231	30.947558673876	0.007623611414
0	3236	30.96101324021	0.00760786871
0	3244	30.985114948802	0.007580680095
0	3247	30.992686609159	0.015125707639
0	3252	31.077980295831	0.007476236249
0	3259	31.111677711763	0.007439685408
0	3262	31.119109498577	0.012916842383
0	3267	31.206018212771	0.007337526205
0	3272	31.216121906639	0.007327541087
0	3277	31.228472837066	0.007313760318
0	3284	31.265549954489	0.007274994804
0	3288	31.272817396349	0.008826940652
0	3297	31.456473618382	0.007194984068
0	3302	31.480858152787	0.007232899359
0	3307	31.505824604808	0.007271971743
0	3315	31.586975229239	0.007402707276
0	3318	31.594390483476	0.014772236072
0	3324	31.667218814702	0.007536606374
0	3331	31.675341937072	0.00755042606
0	3334	31.682905416272	0.012317588834
0	3342	31.754403121369	0.007688083471
0	3347	31.801976328204	0.007773459189
0	3355	31.960942599431	0.00807195572
0	3362	32.110169305	0.007538229593
0	3369	32.185970298789	0.007179487179
0	3375	32.20741164284	0.007084303208
0	3384	32.297806236245	0.00706999293
0	3391	32.472996278435	0.007111652951
0	3401	32.598958129993	0.007142128354
0	3406	32.63058480154	0.007149422939
0	3411	32.640483886927	0.007152344947
0	3416	32.658520144621	0.00715673244
0	3424	32.891203406732	0.007213520198
0	3429	32.98471921166	0.007236638065
0	3434	33.110168303665	0.00726744186
0	3439	33.171484072827	0.007283321194
0	3444	33.194136343808	0.007288629738
0	3451	33.232723602929	0.007298509019
0	3457	33.293963931524	0.007313760318
0	3462	33.317009104963	0.007319878699
0	3467	33.34877122885	0.007327541087
0	3472	33.387386543538	0.007337526205
0	3478	33.407741020528	0.007342914088
0	3485	33.494377568232	0.007365319865
0	3491	33.543656479784	0.007377740304
0	3496	33.598631271541	0.007391763464
0	3502	33.648279322449	0.007405056596
0	3509	33.694796608636	0.007416825599
0	3512	33.702215792526	0.008274223776
0	3517	33.723681393337	0.007424692406
0	3522	33.733659380174	0.007427055703
0	3527	33.784726658945	0.00744047619
0	3534	33.835424729138	0.007453945267
0	3537	33.842880262209	0.010247428874
0	3542	33.856688993322	0.007459505541
0	3547	33.971480063981	0.007489835224
0	3554	33.985790026383	0.007493844342
0	3559	33.993285475575	0.00867848316
0	3562	34.00078333333	0.010053319945
0	3569	34.049167410573	0.007510729614
0	3572	34.056679752277	0.00967595461
0	3579	34.124152278921	0.007530930608
0	3582	34.131684830304	0.013984432423
0	3587	34.154208928469	0.007539041465
0	3592	34.180816781821	0.00754554274
0	3597	34.248639244887	0.00756429652
0	3602	34.263452181359	0.007568385771
0	3607	34.298287092685	0.007577397705
0	3612	34.315441988196	0.007582322357
0	3617	34.327875508127	0.007585609016
0	3622	34.337297014411	0.007588075881
0	3627	34.402221604154	0.007606215365
0	3632	34.465977219075	0.007623611414
0	3637	34.474908128836	0.007626103061
0	3644	34.555370480504	0.007648601399
0	3649	34.583282859244	0.007656130373
0	3654	34.622111818356	0.007667031763
0	3659	34.688965999566	0.007685551164
0	3664	34.712227271282	0.007692307692
0	3670	34.781224523554	0.007711799053
0	3675	34.827538234574	0.007724564114
0	3680	34.865148207423	0.00773480663
0	3685	34.877914500633	0.007739082366
0	3690	34.911419745051	0.007748505645
0	3695	34.940989168624	0.007757092199
0	3702	34.952958599977	0.007760532151
0	3705	34.960720853248	0.007850382743
0	3713	35.186127387736	0.007648601399
0	3720	35.246114940526	0.007672073652
0	3723	35.253790379122	0.008624428034
0	3728	35.286944241501	0.007688083471
0	3733	35.313433269014	0.007699076111
0	3738	35.333218917054	0.007706704833
0	3743	35.351049432946	0.007713498623
0	3751	35.38753257473	0.007726269316
0	3756	35.395259696929	0.011775093981
0	3759	35.402986819128	0.008483711993
0	3765	35.448795312028	0.007731389441
0	3770	35.47457574358	0.007733097658
0	3775	35.537428997929	0.007738226841
0	3780	35.596334734016	0.00774250636
0	3785	35.742571264686	0.007753655295
0	3792	35.826095081044	0.007759671877
0	3796	35.833855613195	0.010973444605
0	3805	35.991704847172	0.007150153218
0	3811	36.029056482281	0.007095073991
0	3816	36.048354151894	0.007123231912
0	3822	36.133940666024	0.007250880464
0	3829	36.247500514583	0.00742626777
0	3832	36.254938618929	0.011182835247
0	3837	36.307585566436	0.007522837184
0	3842	36.371909863087	0.007629427793
0	3849	36.43249077345	0.007732243455
0	3852	36.440236706835	0.010942304649
0	3857	36.449837139056	0.007762253271
0	3870	36.782630625918	0.00815565653
0	3875	36.850837493773	0.008124419684
0	3880	36.862786495894	0.008118765948
0	3887	36.88569699676	0.008107482048
0	3890	36.893800724475	0.010149980299
0	3895	36.912833006793	0.008095293165
0	3904	36.923483289954	0.008090614887
0	3907	36.931570166109	0.01440768865
0	3912	37.035891933362	0.008038585209
0	3917	37.058481187452	0.008028443629
0	3922	37.10867009256	0.008005489478
0	3927	37.117090976401	0.008001828989
0	3935	37.259154570897	0.007938308006
0	3942	37.28990554199	0.007924827352
0	3947	37.373220550554	0.007888212756
0	3952	37.419714577195	0.007867820614
0	3957	37.502167600832	0.007831729693
0	3962	37.535413548749	0.00781773509
0	3969	37.543889275965	0.007814244251
0	3975	37.551700032493	0.014610555496
0	3978	37.559507304409	0.013116168393
0	3983	37.584308384312	0.007796836712
0	3990	37.695103278419	0.007749363445
0	3996	37.748983518771	0.007727122199
0	4001	37.774459606626	0.007716049383
0	4007	37.798485137174	0.007705856451
0	4012	37.81754514871	0.007698229407
0	4018	38.054395793274	0.007600434311
0	4023	38.07083257713	0.007593838143
0	4028	38.078516735887	0.00759054435
0	4033	38.091884709673	0.007585609016
0	4039	38.135799896596	0.007567567568
0	4046	38.201209862494	0.00754147813
0	4049	38.208748092087	0.008145192301
0	4054	38.238165089498	0.007526072465
0	4059	38.322706506978	0.007493042175
0	4064	38.42765534199	0.007451564829
0	4069	38.489417612337	0.007427055703
0	4074	38.504238032651	0.007421543681
0	4079	38.557218817181	0.00740114189
0	4084	38.581743890127	0.007391763464
0	4089	38.79369580928	0.007310704961
0	4094	38.866886001486	0.007283321194
0	4100	38.908454810295	0.007268196449
0	4106	39.004097653921	0.007232899359
0	4111	39.041706794883	0.007218727441
0	4117	39.1260951401	0.007187596262
0	4122	39.167049760458	0.007172866072
0	4128	39.241228372178	0.007146503318
0	4133	39.274166293111	0.007134121484
0	4142	39.333863010853	0.007113098262
0	4147	39.340973219081	0.012482520114
0	4152	39.348081261323	0.012399104447
0	4157	39.355186417636	0.01239607656
0	4160	39.36228941104	0.008540847953
0	4165	39.557430781979	0.007034468898
0	4170	39.58383176715	0.007025291048
0	4177	39.638125548863	0.007006305675
0	4182	39.693156541794	0.007087889834
0	4189	39.750436275287	0.007185382878
0	4194	39.757987912064	0.007198683669
0	4199	39.792872339122	0.007259904584
0	4205	39.812570132866	0.007294706128
0	4210	39.860518409101	0.007380851961
0	4216	39.910820742969	0.007473841555
0	4221	40.055151895303	0.007753655295
0	4226	40.097987252541	0.007840501792
0	4231	40.12446342891	0.007895330476
0	4240	40.173048998991	0.007998171846
0	4243	40.181064572104	0.012605044895
0	4248	40.213924406862	0.008086876155
0	4255	40.330676962606	0.00814995925
0	4260	40.41233992772	0.008067304368
0	4265	40.476867328909	0.008001828989
0	4272	40.607716385007	0.007874015748
0	4277	40.681997708282	0.007803790412
0	4282	40.700427465287	0.007786429366
0	4287	40.730480615083	0.007757951901
0	4294	40.868264668458	0.007631923245
0	4299	40.87620498653	0.007624441782
0	4306	40.885441537755	0.00761614623
0	4309	40.893051060529	0.011036798904
0	4320	40.924680250069	0.007580680095
0	4323	40.932254368225	0.014651752353
0	4326	40.939821935793	0.020657350252
0	4329	40.947382964093	0.024601541102
0	4337	41.021350976579	0.00750348376
0	4340	41.028853656107	0.008921891637
0	4345	41.091429180207	0.007495449192
0	4350	41.125034067344	0.007491438356
0	4355	41.203215187628	0.00748262961
0	4361	41.215871373693	0.007481030245
0	4366	41.227053353909	0.007479431563
0	4373	41.242174757679	0.007477833565
0	4376	41.249651792501	0.009026053826
0	4381	41.291491733579	0.007472245944
0	4386	41.304198086561	0.007470651014
0	4391	41.319183138156	0.007469056765
0	4399	41.360931971747	0.007464278098
0	4404	41.368395453995	0.012144468159
0	4407	41.375858140562	0.011728352084
0	4413	41.600838100371	0.007437314067
0	4420	41.703486399178	0.007425480004
0	4425	41.72669517223	0.007423117709
0	4432	41.751416902853	0.00741997032
0	4435	41.758836086743	0.012416562474
0	4441	41.831418068984	0.007411328745
0	4446	41.936410736068	0.007399577167
0	4453	42.001642241945	0.007391763464
0	4458	42.028429552106	0.007388642601
0	4463	42.056329418745	0.007385524372
0	4470	42.072572821598	0.007383966245
0	4473	42.079956009025	0.009470187056
0	4480	42.111442114177	0.007379295804
0	4483	42.118820632149	0.01368311971
0	4488	42.164232998445	0.007373854419
0	4493	42.194330265083	0.007370748657
0	4499	42.368851243297	0.007351396765
0	4505	42.43241320655	0.007343684431
0	4510	42.56994341973	0.007329075489
0	4515	42.67740436142	0.007316818229
0	4523	42.732396117401	0.007310704961
0	4526	42.739706058921	0.012239976234
0	4531	42.756207916863	0.007308415118
0	4536	42.839796316087	0.007299270073
0	4541	42.864749434123	0.007296226808
0	4546	43.01970043951	0.00727953411
0	4552	43.056015383021	0.007275750961
0	4559	43.095184006048	0.007271216371
0	4562	43.102454467203	0.011404841791
0	4567	43.111293911177	0.007269706096
0	4573	43.194102710974	0.007260657608
0	4579	43.218810573314	0.007257646449
0	4584	43.238529566152	0.007256141806
0	4589	43.254811338609	0.00725388601
0	4594	43.388930045796	0.007239631813
0	4600	43.475456680396	0.00723065799
0	4607	43.568681040501	0.007220216606
0	4610	43.575900512448	0.011245252587
0	4615	43.597185174832	0.007217238891
0	4623	43.752231870333	0.007200905257
0	4628	43.771860760804	0.007198683669
0	4633	43.795629565776	0.007196463452
0	4639	43.829094758403	0.007192766132
0	4645	43.856593549964	0.007190549563
0	4650	43.878124973899	0.007190549563
0	4657	43.94226099241	0.007192766132
0	4660	43.949453758542	0.009983127748
0	4667	43.985704634665	0.007193505292
0	4672	43.997039244543	0.007193505292
0	4677	44.015763076486	0.007194244604
0	4683	44.118202663846	0.007196463452
0	4688	44.147951984168	0.007197203372
0	4693	44.170659916612	0.007197943445
0	4699	44.209929283091	0.007199424046
0	4704	44.234461353272	0.007199424046
0	4709	44.255150521683	0.007200164575
0	4715	44.404182063916	0.007203869507
0	4720	44.451286047956	0.007205352548
0	4727	44.5750010645	0.007208320461
0	4732	44.582209384961	0.012840756809
0	4735	44.589417705422	0.007750730191
0	4740	44.618795634782	0.007209062822
0	4746	44.779972574638	0.007213520198
0	4751	44.833840843205	0.007215007215
0	4756	44.860482206136	0.007215007215
0	4761	44.893352655694	0.007216494845
0	4766	44.910909510137	0.007216494845
0	4771	44.938008318498	0.007217238891
0	4776	44.959001535503	0.007217983089
0	4784	45.021580000262	0.007219471947
0	4787	45.028799472209	0.01039478324
0	4792	45.100475248729	0.007221706386
0	4797	45.109026127236	0.007221706386
0	4802	45.142868597362	0.007222451506
0	4807	45.188271109491	0.007223942208
0	4812	45.240804740303	0.00722468779
0	4818	45.392902620761	0.007228418009
0	4823	45.509686175936	0.007231404959
0	4829	45.58982809633	0.007233646791
0	4834	45.676936267836	0.007235890014
0	4840	45.743824456696	0.007241129616
0	4846	45.757176951898	0.007243377483
0	4853	45.968836518385	0.007284079084
0	4859	46.006569421625	0.007291666667
0	4864	46.023582029972	0.007294706128
0	4869	46.03460776331	0.007296987387
0	4879	46.207866603587	0.007329842932
0	4882	46.215197981886	0.011492621167
0	4888	46.338139814179	0.00735525901
0	4894	46.424991322179	0.007372301211
0	4899	46.444451063503	0.007376185458
0	4904	46.515154170595	0.007390202703
0	4909	46.54299147791	0.007395668251
0	4914	46.56419829681	0.007400359446
0	4919	46.573748728972	0.0074019245
0	4924	46.586986828899	0.007404273323
0	4929	46.630281269945	0.007412898443
0	4936	46.673941360531	0.007421543681
0	4939	46.68136447824	0.013567042645
0	4947	46.864046547781	0.007460300544
0	4952	46.895952039688	0.007466666667
0	4957	46.9278722051	0.007473043664
0	4962	46.949007471099	0.007477034822
0	4967	46.988907870535	0.00748502994
0	4972	47.047107706551	0.007497054728
0	4980	47.150794304216	0.007517989475
0	4987	47.343229065011	0.007557762902
0	4992	47.362676678504	0.00756184509
0	4997	47.41257831686	0.007571660357
0	5003	47.462548712104	0.007582322357
0	5011	47.711747978498	0.007634420329
0	5016	47.739680131898	0.00764025322
0	5021	47.787401484548	0.007650273224
0	5027	47.860912500396	0.007666192093
0	5034	47.915239281661	0.007677964243
0	5041	47.922918930591	0.009849575514
0	5044	47.930600264949	0.014851309764
0	5047	47.938283285474	0.021187802225
0	5052	47.972664773342	0.007689772602
0	5057	48.027162840877	0.00770161734
0	5062	48.070529297015	0.007710949548
0	5067	48.128459956358	0.007723711795
0	5072	48.17557643484	0.007733952049
0	5077	48.247267108325	0.007749363445
0	5086	48.272759129703	0.007754514235
0	5089	48.28051536239	0.014799551681
0	5092	48.288273314291	0.020888474485
0	5099	48.299164443745	0.007760532151
0	5102	48.306926697016	0.011416289132
0	5107	48.354980441404	0.007772596047
0	5113	48.396900253646	0.007782101167
0	5120	48.502799402437	0.007804660497
0	5128	48.635359848799	0.007834359261
0	5131	48.643195962087	0.014693576972
0	5138	48.720434907397	0.007853696847
0	5141	48.728290366941	0.010248440132
0	5147	48.883049120321	0.007889990983
0	5152	49.008326151616	0.007917656374
0	5157	49.021897098879	0.00792124024
0	5162	49.126876798741	0.007944614686
0	5169	49.208912685453	0.007963594994
0	5176	49.232739668247	0.007969034608
0	5179	49.240710517712	0.014128848241
0	5184	49.266813467079	0.007977207977
0	5191	49.305537851829	0.007986309184
0	5194	49.313525983747	0.009468171556
0	5199	49.357760744622	0.007998171846
0	5204	49.382784029212	0.008003658815
0	5209	49.396124132586	0.008007320979
0	5214	49.407286642812	0.008009153318
0	5219	49.438716492902	0.008016491067
0	5225	49.514629312988	0.008050603795
0	5231	49.546228167533	0.008117824423
0	5239	49.746332914271	0.008443908323
0	5245	49.8468172596	0.008443908323
0	5252	49.859982399269	0.008443908323
0	5255	49.868427326281	0.014761406039
0	5264	49.89214236374	0.008444927012
0	5267	49.900587290752	0.012921149657
0	5270	49.909032217764	0.017351052194
0	5276	49.995848164158	0.008444927012
0	5283	50.068579822316	0.008445945946
0	5286	50.077025768262	0.016385562563
0	5293	50.130595230666	0.008445945946
0	5296	50.139041176612	0.013023949831
0	5301	50.167198554091	0.008445945946
0	5307	50.213284736568	0.008446965126
0	5312	50.243151964073	0.008446965126
0	5317	50.298198121924	0.008446965126
0	5322	50.30933457103	0.008446965126
0	5328	50.507440808562	0.008447984552
0	5333	50.516074034219	0.008447984552
0	5338	50.530232124046	0.008447984552
0	5343	50.568778127155	0.008449004225
0	5348	50.647067719209	0.008449004225
0	5353	50.66057240599	0.008449004225
0	5358	50.689031846547	0.008449004225
0	5363	50.740409176024	0.008450024143
0	5368	50.803656647339	0.008450024143
0	5373	50.81825526777	0.008450024143
0	5378	50.848858957535	0.008450024143
0	5385	50.869338028783	0.008450024143
0	5390	50.877788052926	0.008530096189
0	5395	50.886238077069	0.010286840953
0	5398	50.894688101212	0.011471067612
0	5405	50.915740151403	0.008451044308
0	5408	50.924191195711	0.015144696345
0	5414	51.07954921693	0.008452064719
0	5420	51.160397963811	0.008452064719
0	5427	51.233364214515	0.008452064719
0	5432	51.307003163141	0.008453085376
0	5439	51.317895835316	0.008453085376
0	5444	51.326348920692	0.008476834564
0	5447	51.334802006068	0.011342942141
0	5455	51.394822934311	0.008453085376
0	5460	51.403276019687	0.012335754631
0	5463	51.411729105063	0.016507067886
0	5468	51.425699982834	0.00845410628
0	5476	51.530134360965	0.00845410628
0	5481	51.549358895984	0.00845410628
0	5489	51.62765165274	0.008455127431
0	5492	51.636106780171	0.01278827982
0	5498	51.676922544693	0.008455127431
0	5503	51.708346522696	0.008455127431
0	5509	51.721226263493	0.008455127431
0	5514	51.745933846203	0.008455127431
0	5519	51.813799030703	0.008456148828
0	5524	51.90128661976	0.008456148828
0	5530	51.920618630854	0.008456148828
0	5536	51.933907161482	0.008457170472
0	5541	51.985270989311	0.008457170472
0	5547	52.020893653975	0.008457170472
0	5552	52.046459979316	0.008457170472
0	5557	52.088370428187	0.008457170472
0	5562	52.222659415544	0.008458192363
0	5567	52.337883803401	0.008459214502
0	5572	52.397466318386	0.008459214502
0	5578	52.446250566536	0.008459214502
0	5583	52.474332536573	0.008460236887
0	5588	52.568161595556	0.008460236887
0	5593	52.587673609647	0.008460236887
0	5601	52.646024545618	0.008461259519
0	5604	52.654485805137	0.016231143353
0	5611	52.807829917796	0.008462282398
0	5616	52.872115810215	0.008462282398
0	5623	52.881971601412	0.008462282398
0	5626	52.89043388381	0.011947166115
0	5633	52.993344375654	0.008463305525
0	5636	53.001807681179	0.011768154521
0	5642	53.13963335694	0.0084643289
0	5650	53.161288904271	0.0084643289
0	5653	53.169753233171	0.011659721907
0	5658	53.180128384427	0.0084643289
0	5665	53.231399550157	0.0084643289
0	5668	53.239863879057	0.015185462969
0	5673	53.296274994527	0.0084643289
0	5679	53.326684631725	0.008465352521
0	5684	53.430760344844	0.008465352521
0	5692	53.460379927757	0.008465352521
0	5695	53.468845280278	0.010568659814
0	5702	53.535498222847	0.008466376391
0	5705	53.543964599238	0.013167114713
0	5710	53.5680392772	0.008466376391
0	5716	53.636810777349	0.008466376391
0	5721	53.665166829796	0.008467400508
0	5726	53.774987051457	0.008467400508
0	5732	53.8363772051	0.008468424873
0	5737	53.846657917049	0.008468424873
0	5742	53.861306942685	0.008468424873
0	5747	53.939231798513	0.008468424873
0	5752	53.953058497577	0.008468424873
0	5757	53.971424229223	0.008468424873
0	5762	53.994369954634	0.008468424873
0	5768	54.016866244816	0.008469449486
0	5774	54.186929637864	0.008470474347
0	5779	54.221852080474	0.008470474347
0	5785	54.323464393993	0.008470474347
0	5791	54.368481769301	0.008471499455
0	5796	54.491552754408	0.008471499455
0	5801	54.500382100539	0.008471499455
0	5806	54.536043235662	0.008472524812
0	5813	54.586568570836	0.008472524812
0	5816	54.595041095648	0.015582255587
0	5821	54.668215581076	0.008472524812
0	5827	54.736575169906	0.008473550418
0	5834	54.790354319371	0.008473550418
0	5841	54.809366158926	0.008473550418
0	5844	54.817839709344	0.013087504933
0	5849	54.876999333508	0.008474576271
0	5856	54.9398052002	0.008474576271
0	5859	54.948279776471	0.015713776585
0	5865	55.070844060655	0.008475602373
0	5871	55.095592517232	0.008475602373
0	5876	55.124363861291	0.008475602373
0	5881	55.141603868539	0.008475602373
0	5887	55.19241753198	0.008475602373
0	5893	55.21249364261	0.008463305525
0	5898	55.263152285822	0.008398320336
0	5907	55.322513434193	0.008323424495
0	5910	55.330825986146	0.015581272037
0	5913	55.339128678591	0.018971454947
0	5919	55.481194967781	0.008128193219
0	5924	55.511043230485	0.008092485549
0	5929	55.529609130584	0.00807102502
0	5934	55.560702697686	0.008033972225
0	5939	55.58843173224	0.008001828989
0	5944	55.634479712837	0.007949125596
0	5951	55.808670391194	0.007754514235
0	5958	55.902137388797	0.007672914611
0	5963	55.91247693424	0.007666192093
0	5971	55.927356183899	0.007656967841
0	5974	55.935008129679	0.013286273094
0	5980	55.991669404197	0.007615317668
0	5985	56.180294126301	0.007497857755
0	5990	56.318073528499	0.007414468806
0	5995	56.332753366427	0.007405840034
0	6000	56.34965612923	0.007395668251
0	6005	56.35714626193	0.007390983001
0	6011	56.458460151246	0.007330610535
0	6017	56.612527142571	0.00724187875
0	6022	56.707015090178	0.007187596262
0	6027	56.734362882333	0.007172131148
0	6033	56.793739842171	0.007139214686
0	6038	56.806237397336	0.007131940907
0	6045	56.870482277387	0.007185382878
0	6050	56.970999184843	0.007322175732
0	6055	57.034655242414	0.007411328745
0	6065	57.230267908175	0.007699923001
0	6068	57.237979707228	0.014483298593
0	6073	57.267136086125	0.007757092199
0	6078	57.420043042305	0.008001828989
0	6083	57.453948251271	0.008058945429
0	6089	57.500858731652	0.008138588536
0	6099	57.733279378147	0.008444927012
0	6104	57.741716162527	0.009051150876
0	6107	57.750145834974	0.012494284581
0	6112	57.782749265446	0.008400336013
0	6117	57.811415869155	0.008374207441
0	6122	57.824649575068	0.008363201912
0	6127	57.862217597499	0.008329366968
0	6133	57.894916376727	0.008300723349
0	6138	57.914018967339	0.008284023669
0	6144	57.950393370792	0.008252770573
0	6149	57.986273031897	0.008221752408
0	6157	58.005063296017	0.008205368655
0	6160	58.013261937385	0.009715920547
0	6165	58.021981028452	0.008190966534
0	6170	58.159548838319	0.008075680665
0	6175	58.239464412787	0.008010069802
0	6181	58.270276515571	0.007984487282
0	6186	58.28327956179	0.007974481659
0	6191	58.305494746982	0.007956353717
0	6196	58.340700269902	0.007927519819
0	6203	58.354524413539	0.007916760914
0	6206	58.3624349119	0.015653910636
0	6214	58.399423915741	0.007881107859
0	6217	58.407298817305	0.012253801795
0	6222	58.449509384891	0.00784225857
0	6228	58.517564048082	0.007789028597
0	6233	58.581626708688	0.00773993808
0	6238	58.603346508934	0.007723711795
0	6243	58.6622995245	0.007678806494
0	6248	58.687697618735	0.007660319545
0	6254	58.696409312786	0.007653619068
0	6259	58.855425267061	0.007658643326
0	6264	58.899544668212	0.007661157929
0	6269	59.045837164956	0.007668711656
0	6274	59.220997265892	0.007677964243
0	6279	59.26503582242	0.007680491551
0	6285	59.310585201063	0.007683020525
0	6293	59.525106037064	0.007693998681
0	6298	59.542304939926	0.007694844454
0	6305	59.672488651573	0.00770161734
0	6312	59.696695734791	0.007703312424
0	6315	59.704399047215	0.012132452623
0	6320	59.718227879112	0.007704160247
0	6325	59.786290037013	0.007708402158
0	6331	59.824303582915	0.007710100231
0	6336	59.833942229035	0.007710949548
0	6341	59.85137581588	0.007711799053
0	6346	59.884670580578	0.007713498623
0	6351	59.922354678312	0.007715198942
0	6357	60.02156025971	0.007720304401
0	6363	60.103966347964	0.007725416621
0	6368	60.128253315647	0.007726269316
0	6374	60.183941918825	0.007729681979
0	6381	60.281159574933	0.007733952049
0	6388	60.380246919268	0.007732243455
0	6393	60.464291036738	0.007731389441
0	6398	60.481620371389	0.007730535616
0	6404	60.562519576192	0.007729681979
0	6409	60.579328645059	0.00772882853
0	6416	60.662911194871	0.00772797527
0	6424	60.780248257072	0.007725416621
0	6427	60.787973673693	0.008877209772
0	6432	60.823723069581	0.007724564114
0	6437	60.915311839794	0.007723711795
0	6442	60.944129407867	0.007722859665
0	6447	60.978591549758	0.007722007722
0	6452	61.021498241171	0.007721155967
0	6457	61.070231074281	0.007720304401
0	6464	61.095853512362	0.007720304401
0	6467	61.103573816763	0.014039971698
0	6474	61.114760389509	0.007720304401
0	6479	61.122479842531	0.010838247024
0	6484	61.130199295553	0.009272132307
0	6489	61.137918748575	0.013057359236
0	6492	61.145638201597	0.013052691074
0	6497	61.161477933252	0.007719453022
0	6503	61.228027854579	0.007717750827
0	6509	61.397089973885	0.007715198942
0	6514	61.419580332866	0.007714348689
0	6519	61.491771377128	0.007713498623
0	6526	61.60606912951	0.007711799053
0	6531	61.672245833804	0.007710100231
0	6538	61.904245863667	0.007706704833
0	6546	62.098082049908	0.007703312424
0	6552	62.151490502459	0.007702464789
0	6561	62.332358594182	0.007699076111
0	6564	62.340057670293	0.009366533697
0	6570	62.56020494978	0.007694844454
0	6575	62.725641189953	0.007692307692
0	6580	62.766055411583	0.007691462477
0	6585	62.835912689901	0.007690617447
0	6590	62.849484366731	0.007689772602
0	6597	62.900745736452	0.007688927944
0	6600	62.908434664396	0.010566475764
0	6606	62.952001895669	0.007688083471
0	6611	62.997183949968	0.007687239183
0	6616	63.117803056457	0.007685551164
0	6624	63.312125292831	0.007682177349
0	6627	63.31980747018	0.013446428947
0	6633	63.366785193439	0.007681334358
0	6640	63.602710192883	0.007677122176
0	6645	63.659834634274	0.007676280294
0	6652	63.691735280004	0.007675438596
0	6655	63.6994107186	0.013458956835
0	6660	63.715702569777	0.007675438596
0	6665	63.814783380762	0.007673755755
0	6670	63.838708742425	0.007672914611
0	6675	63.891932553564	0.007672073652
0	6680	63.911272452559	0.007672073652
0	6686	63.931701027711	0.007672073652
0	6693	63.970439567661	0.007671232877
0	6698	64.043143577662	0.007669551879
0	6703	64.128441100048	0.007668711656
0	6708	64.188735144001	0.007667031763
0	6713	64.209927948317	0.007667031763
0	6718	64.265065613347	0.007666192093
0	6723	64.275356104474	0.007666192093
0	6730	64.291648018188	0.007665352606
0	6733	64.299313370794	0.013140314852
0	6738	64.309260496111	0.007665352606
0	6745	64.358034359842	0.007664513303
0	6750	64.373020759099	0.007664513303
0	6755	64.5329583362	0.007661157929
0	6761	64.587242831556	0.007660319545
0	6767	64.654906841267	0.007659481344
0	6775	64.729469435414	0.007657805492
0	6781	64.737127240906	0.008947683837
0	6784	64.744785046398	0.008852002953
0	6789	64.756224392309	0.007657805492
0	6794	64.818582472451	0.007656967841
0	6799	64.890394635884	0.007655293088
0	6806	64.970947605403	0.007654455987
0	6811	65.009496318438	0.007663674184
0	6816	65.048399270455	0.007672073652
0	6821	65.171779475105	0.007700770077
0	6826	65.25322068248	0.007719453022
0	6831	65.268131114562	0.007722859665
0	6836	65.28542558144	0.007726269316
0	6841	65.305207193629	0.007731389441
0	6847	65.320083870472	0.00773480663
0	6853	65.357386507489	0.007743362832
0	6861	65.41301856457	0.007756232687
0	6864	65.420776516471	0.00962513139
0	6869	65.438805406054	0.007762253271
0	6874	65.459672347613	0.007767421216
0	6879	65.501784957154	0.007776913676
0	6886	65.657166126378	0.007813372028
0	6892	65.835253681429	0.007855459544
0	6901	65.863138583053	0.007862518252
0	6904	65.871002867965	0.013609428807
0	6907	65.87886892033	0.020664255582
0	6912	65.906875421378	0.007873130132
0	6917	65.953307664717	0.007883770695
0	6922	66.003484813177	0.007896221094
0	6929	66.125291404443	0.007925724638
0	6934	66.172277812572	0.007937407869
0	6939	66.242551540469	0.007954545455
0	6944	66.324268357399	0.007974481659
0	6949	66.363262746936	0.007984487282
0	6955	66.37911602591	0.007988131918
0	6960	66.411536750946	0.007996344528
0	6966	66.47712333867	0.008011903399
0	6971	66.56313531735	0.008033972225
0	6976	66.681111852618	0.008063587144
0	6981	66.743377744815	0.008079409049
0	6986	66.751734035414	0.008081274532
0	6991	66.781155975322	0.008088745089
0	6996	66.808152137817	0.008095293165
0	7001	66.867566482773	0.008110300081
0	7008	66.980197485479	0.008139534884
0	7011	66.988338913718	0.01599318656
0	7016	67.035310083358	0.008153756552
0	7021	67.050563881407	0.008157557394
0	7026	67.097534254432	0.008169934641
0	7032	67.174086509364	0.00818905007
0	7037	67.251509476558	0.008209217779
0	7042	67.361051546434	0.008238201718
0	7048	67.424334740634	0.008254716981
0	7057	67.520315650146	0.008280104093
0	7062	67.612998639773	0.008304662475
0	7067	67.6519023928	0.008315514374
0	7073	67.751914816266	0.008342271481
0	7078	67.786098592355	0.008351228824
0	7084	67.973798622079	0.008293838863
0	7089	67.987383863556	0.00828892836
0	7094	68.026981379137	0.008273253753
0	7099	68.059833344379	0.008261536646
0	7104	68.174926294269	0.008217891524
0	7109	68.213471557696	0.008203445447
0	7114	68.275122357229	0.008180437069
0	7119	68.428597548647	0.008123476848
0	7124	68.45678010656	0.008113120074
0	7129	68.634981159418	0.008047827087
0	7134	68.652552132079	0.008042279412
0	7142	68.673026442535	0.008034894399
0	7145	68.681057649511	0.009340806825
0	7150	68.725590920406	0.008015573113
0	7156	68.74968773203	0.008007320979
0	7161	68.788003742054	0.007993605116
0	7172	68.80919307687	0.007986309184
0	7176	68.817175743081	0.012392978499
0	7179	68.825155679242	0.016939470506
0	7182	68.833132887219	0.024558340129
0	7187	68.89272518262	0.007956353717
0	7193	69.031236016022	0.007907817442
0	7198	69.04965998793	0.007901569026
0	7203	69.07095820963	0.007893549842
0	7208	69.10760431753	0.007881107859
0	7213	69.148608558355	0.00786693639
0	7218	69.183659694646	0.007855459544
0	7223	69.241937090333	0.007835236176
0	7230	69.35478003485	0.007796836712
0	7235	69.429161849524	0.007771733096
0	7240	69.447954331019	0.007765697803
0	7245	69.458043512403	0.007762253271
0	7253	69.598128937364	0.007604562738
0	7258	69.655606365658	0.007339834329
0	7263	69.692717230885	0.007178014766
0	7270	69.713522045428	0.00709076175
0	7274	69.720583479908	0.007816152136
0	7280	69.753671673417	0.007043670759
0	7285	69.780939096865	0.007049345418
0	7290	69.818339951558	0.00705716302
0	7295	69.989808707735	0.007092917216
0	7302	70.05291263744	0.007105877576
0	7305	70.06001995798	0.013359881107
0	7310	70.072748011937	0.007110208228
0	7315	70.166606935342	0.007129761662
0	7321	70.256050132493	0.007147962831
0	7326	70.272734718639	0.007151614221
0	7332	70.301803761976	0.007158196135
0	7337	70.33602609896	0.007164790174
0	7343	70.390690649739	0.007176542957
0	7348	70.459547879798	0.007191288268
0	7353	70.468299819528	0.007193505292
0	7359	70.542766635066	0.007209062822
0	7364	70.627603240632	0.007227671657
0	7371	70.785261076373	0.007261410788
0	7378	70.84519401813	0.007274238803
0	7381	70.852469769091	0.012753318721
0	7388	70.942246164649	0.007295466389
0	7394	71.034199967269	0.007316053512
0	7399	71.165702978051	0.007345225603
0	7404	71.18127350037	0.007348309889
0	7409	71.277374326651	0.007369972626
0	7414	71.285885162099	0.007372301211
0	7419	71.334060877706	0.007382408775
0	7424	71.352088673136	0.007387083157
0	7429	71.365253859332	0.007389422569
0	7435	71.422973914112	0.007402707276
0	7440	71.48305522366	0.007416039835
0	7447	71.654762459346	0.007455533071
0	7450	71.662219580897	0.010063533125
0	7457	71.671529007012	0.007459505541
0	7460	71.678990102727	0.008904390602
0	7465	71.715752906487	0.007469853804
0	7472	71.74041787543	0.007475437847
0	7475	71.747894910252	0.013653260428
0	7481	71.777806275681	0.007483429549
0	7486	71.833916344439	0.007497054728
0	7491	71.870916682843	0.007505092742
0	7496	71.882398683358	0.007508312775
0	7501	71.890528882962	0.007509923828
0	7506	71.93079060531	0.007519604684
0	7512	71.975925138251	0.007530120482
0	7517	71.995561751422	0.007534172855
0	7523	72.096428295158	0.007557762902
0	7529	72.427065207179	0.007636919049
0	7534	72.450439259733	0.007642755759
0	7539	72.46689307261	0.00764609503
0	7544	72.554797806702	0.007667871618
0	7549	72.619909179284	0.007683020525
0	7554	72.64412616168	0.007688927944
0	7561	72.702330239536	0.007703312424
0	7564	72.710035247791	0.01252095922
0	7571	72.720230306307	0.007707553402
0	7574	72.727940406538	0.008426557613
0	7581	72.73675156578	0.007711799053
0	7588	72.744465064403	0.013647830803
0	7591	72.752181113786	0.014538060897
0	7594	72.759898864613	0.016022064103
0	7600	72.809819288315	0.007729681979
0	7605	72.823055617566	0.007733097658
0	7610	72.920413974972	0.007757092199
0	7616	73.179955397116	0.007822103028
0	7622	73.356455592665	0.00786693639
0	7627	73.389099931436	0.007874901564
0	7632	73.437197670771	0.007887323944
0	7637	73.537359456065	0.007913181099
0	7644	73.564214870006	0.007920343969
0	7647	73.572137006719	0.011200263144
0	7653	73.622612164664	0.007935608208
0	7658	73.632122626513	0.007937407869
0	7663	73.64399201957	0.007941009643
0	7668	73.720577723945	0.007960877971
0	7674	73.74188185569	0.007966313873
0	7680	73.771573509675	0.007976298997
0	7686	73.859103358419	0.008006405124
0	7691	73.907668759994	0.008022922636
0	7696	73.926229509689	0.008029364533
0	7701	73.93427925154	0.008032128514
0	7706	73.985257974732	0.008049678013
0	7711	74.00627743847	0.008057090239
0	7716	74.043234047972	0.008070094535
0	7724	74.078132594718	0.008082207597
0	7727	74.086217602803	0.015240423641
0	7732	74.103072555506	0.008090614887
0	7737	74.169797438072	0.008114060508
0	7744	74.273059665276	0.008150908244
0	7749	74.363920156774	0.008183306056
0	7754	74.473173796278	0.008222718196
0	7760	74.525644342279	0.008241111373
0	7765	74.53625121122	0.008244994111
0	7770	74.627213554273	0.008278145695
0	7777	74.715409637087	0.008310578179
0	7782	74.807307775139	0.008344260341
0	7787	74.856015301243	0.008363201912
0	7792	74.88639596942	0.008374207441
0	7799	74.931700445702	0.008391273076
0	7804	74.940094737584	0.01020917373
0	7808	74.948492050444	0.013184611524
0	7813	75.002757761424	0.008417508418
0	7820	75.040527372625	0.00843271895
0	7823	75.04896314028	0.009753309154
0	7829	75.122964377889	0.008463305525
0	7834	75.186769484304	0.008487935007
0	7839	75.201444251253	0.008494114792
0	7845	75.247553524994	0.008511673152
0	7850	75.277359525356	0.008523073177
0	7857	75.302972923486	0.008533463367
0	7860	75.311509508852	0.01249222101
0	7866	75.395622835689	0.008568980291
0	7872	75.445895879474	0.008588957055
0	7877	75.48870489649	0.008605851979
0	7882	75.500396165548	0.008610086101
0	7887	75.5296405366	0.008621751447
0	7895	75.671438641623	0.00866122247
0	7900	75.68580787194	0.008660150934
0	7905	75.720024560032	0.008659079664
0	7910	75.733549772687	0.008658008658
0	7917	75.950142232338	0.008647313156
0	7923	75.998814892414	0.008645177226
0	7928	76.018676641621	0.008644109657
0	7934	76.081236175122	0.008641975309
0	7939	76.106207986329	0.008639842014
0	7946	76.140034851279	0.008638775762
0	7951	76.148673627041	0.011485317013
0	7954	76.157311336814	0.008857326476
0	7960	76.224617241503	0.008634513383
0	7965	76.24830000737	0.008633448446
0	7970	76.296249110747	0.008631319359
0	7975	76.36135160187	0.008628127696
0	7982	76.379370109563	0.008627064333
0	7985	76.387997173896	0.016831245119
0	7990	76.400560250283	0.008626001232
0	7995	76.448896480676	0.008623875816
0	8001	76.622066698571	0.008581586368
0	8006	76.666591912277	0.008545965084
0	8011	76.877201626443	0.008381226054
0	8016	76.888277701928	0.008372204282
0	8024	76.975162930372	0.00830663344
0	8027	76.983462669523	0.010243661699
0	8032	77.003293662439	0.008285004143
0	8037	77.103989142867	0.008210180624
0	8044	77.204197645777	0.008136696501
0	8049	77.251997549283	0.008101851852
0	8054	77.307395148945	0.008062658374
0	8062	77.400081581694	0.007997258083
0	8067	77.459825179214	0.007955449483
0	8073	77.651959951007	0.007913181099
0	8078	77.664894904838	0.007914970602
0	8085	77.781356669439	0.007927519819
0	8090	77.879902797746	0.007938308006
0	8097	77.979563688026	0.007949125596
0	8100	77.987512813622	0.011944013669
0	8105	78.004093100576	0.007950931395
0	8110	78.132167193952	0.007965407374
0	8117	78.181647177579	0.007970849465
0	8122	78.2913300756	0.007982666211
0	8127	78.312936577818	0.007985398129
0	8132	78.412741582752	0.007996344528
0	8140	78.423958534984	0.007997258083
0	8143	78.43195670683	0.014825905409
0	8149	78.531519995909	0.008009153318
0	8154	78.552775645407	0.008010986496
0	8159	78.571544049964	0.008013737836
0	8164	78.602587894248	0.008016491067
0	8169	78.62476731451	0.008019246191
0	8174	78.660624522247	0.008022922636
0	8179	78.729603568142	0.008031206976
0	8185	78.787766608653	0.008037662189
0	8191	78.996401833478	0.008060801474
0	8202	79.3343368357	0.008072886634
0	8205	79.342409722334	0.014626738731
0	8210	79.420202889879	0.008073817762
0	8217	79.529858950526	0.008075680665
0	8222	79.596168206333	0.008076612438
0	8227	79.620976773154	0.008076612438
0	8232	79.652271104849	0.008077544426
0	8239	79.67476094163	0.008077544426
0	8242	79.682838486056	0.008315651769
0	8247	79.837586254974	0.008079409049
0	8253	79.850819605635	0.008080341683
0	8258	79.895073994025	0.008080341683
0	8263	79.907309473231	0.008081274532
0	8268	79.985866554894	0.008082207597
0	8273	80.002261040634	0.008082207597
0	8278	80.019293558613	0.008082207597
0	8287	80.193665822443	0.008085008085
0	8292	80.267570649249	0.008085942012
0	8297	80.28713876621	0.008085942012
0	8304	80.304770989583	0.008086876155
0	8309	80.312857865738	0.009639078285
0	8312	80.320944741893	0.014322613754
0	8317	80.39754990363	0.008087810514
0	8325	80.505627105786	0.00808967988
0	8328	80.513716785666	0.010391408212
0	8333	80.53418160597	0.00808967988
0	8341	80.61390506203	0.00808967988
0	8344	80.621991004042	0.014091579411
0	8349	80.657302848642	0.008070094535
0	8355	80.736614581095	0.008033972225
0	8360	80.840365222368	0.007988131918
0	8368	80.866881979357	0.007976298997
0	8371	80.874854644505	0.0121947979
0	8376	81.028879239337	0.00790513834
0	8381	81.104585789404	0.007872244714
0	8387	81.155189888987	0.007850173825
0	8394	81.257033232628	0.007807271916
0	8399	81.30047288432	0.007788161994
0	8404	81.339704729875	0.007771733096
0	8409	81.361348868023	0.007763114118
0	8414	81.399894114447	0.007746790615
0	8420	81.490808081702	0.007709251101
0	8427	81.504168162047	0.007703312424
0	8430	81.511868932124	0.007763158015
0	8439	81.716966047448	0.007616974973
0	8444	81.810081236013	0.007579038545
0	8449	81.840926544245	0.007566749541
0	8454	81.882111522577	0.00755042606
0	8460	82.005529691564	0.007501875469
0	8465	82.017247105477	0.007505092742
0	8470	82.049650919817	0.007515567962
0	8475	82.076283643092	0.007524454477
0	8480	82.195029322801	0.00756429652
0	8485	82.208303299147	0.007568385771
0	8490	82.219134587237	0.007572479446
0	8496	82.290340545814	0.007596310364
0	8501	82.348517105035	0.00761614623
0	8508	82.446102365546	0.00764943722
0	8513	82.453824388471	0.00765194578
0	8521	82.565107332721	0.007690617447
0	8526	82.631479887442	0.007713498623
0	8531	82.688569154359	0.007733097658
0	8536	82.719225655395	0.007744219493
0	8541	82.734148981775	0.007749363445
0	8546	82.770470805309	0.007762253271
0	8552	82.844445312702	0.007782101167
0	8558	82.963747443337	0.007795968371
0	8565	83.015648298078	0.007801181322
0	8568	83.023450348903	0.012434464268
0	8573	83.037114416106	0.007803790412
0	8578	83.068085663288	0.007807271916
0	8583	83.095092191236	0.007810756528
0	8588	83.123521182609	0.007814244251
0	8596	83.190018073132	0.00782122905
0	8599	83.19784017616	0.010811812009
0	8605	83.246995997745	0.007828226348
0	8610	83.309873800197	0.007835236176
0	8619	83.395234529804	0.007844895215
0	8622	83.403080304294	0.009313245855
0	8627	83.41149767976	0.007846653963
0	8633	83.47798427135	0.007854578097
0	8641	83.52639406058	0.007859869751
0	8644	83.534254812966	0.013531159856
0	8650	83.553210704132	0.007863401483
0	8655	83.565538022339	0.007864284912
0	8661	83.604702323433	0.007869589657
0	8666	83.616413084054	0.007870474477
0	8671	83.656707934892	0.007874901564
0	8677	83.830908672768	0.007895330476
0	8683	83.922449478524	0.007906031172
0	8691	83.973379222505	0.007912286651
0	8695	83.981292403604	0.009880877898
0	8700	83.993845610904	0.007914970602
0	8705	84.051880147419	0.00792124024
0	8710	84.072303465657	0.007923930269
0	8715	84.081525646369	0.007924827352
0	8720	84.140544266153	0.007932011331
0	8725	84.252270198407	0.007944614686
0	8731	84.374949902669	0.007959972709
0	8736	84.404970352517	0.007962689114
0	8741	84.413136758338	0.007964501081
0	8746	84.45848443025	0.007969941933
0	8752	84.52711883618	0.007977207977
0	8757	84.563792536363	0.007981755986
0	8762	84.599010422808	0.007986309184
0	8767	84.66411530852	0.007993605116
0	8772	84.674965046228	0.007995431182
0	8777	84.812800133411	0.008011903399
0	8784	84.827057899439	0.008013737836
0	8787	84.835072554809	0.013165715314
0	8792	84.920251023927	0.008024762123
0	8798	85.038925277575	0.008038585209
0	8805	85.054550687223	0.008033050264
0	8808	85.062580051756	0.015258557012
0	8815	85.071476126822	0.008026602454
0	8818	85.079499049458	0.008811307008
0	8823	85.102524547586	0.00801465537
0	8829	85.160535474406	0.007992692396
0	8834	85.169131349216	0.007989043597
0	8839	85.193131783568	0.007979936161
0	8846	85.305444409422	0.007950028393
0	8852	85.453756667051	0.007931112622
0	8857	85.567741521229	0.007916760914
0	8862	85.863617035805	0.007879333633
0	8869	85.902474384467	0.007874015748
0	8872	85.910347514599	0.014134048173
0	8877	85.923170947565	0.007871359496
0	8882	85.949038002958	0.007868705036
0	8887	85.957774938017	0.00786693639
0	8892	86.027134623366	0.007858105074
0	8898	86.054227967799	0.007855459544
0	8903	86.084233933961	0.007851054284
0	8911	86.18722965076	0.007838745801
0	8916	86.297710051539	0.007824726135
0	8921	86.406951029035	0.007811628166
0	8927	86.513856906764	0.007798573975
0	8934	86.536236805329	0.007795100223
0	8940	86.670195451356	0.007778642071
0	8948	86.831063580563	0.007759671877
0	8954	86.922419531655	0.007748505645
0	8959	86.942159844524	0.007745933385
0	8967	86.977299457472	0.007741650077
0	8970	86.985040251456	0.014843478378
0	8976	87.07904956612	0.00772882853
0	8981	87.133588411517	0.007722859665
0	8986	87.194315090668	0.007715198942
0	8991	87.227032155289	0.007711799053
0	8996	87.331965071621	0.007699076111
0	9002	87.383312107612	0.007692307692
0	9007	87.468235730741	0.007682177349
0	9012	87.541563134378	0.007673755755
0	9017	87.570368435131	0.007670392286
0	9022	87.611027701233	0.007665352606
0	9027	87.621927739373	0.007664513303
0	9032	87.64510514237	0.007661157929
0	9040	87.704621390232	0.007661996497
0	9045	87.775880285167	0.007671232877
0	9050	87.794286279385	0.007673755755
0	9057	87.811617978224	0.007675438596
0	9060	87.819294258518	0.013642116845
0	9066	87.876873356728	0.007683863886
0	9071	87.92714199156	0.007690617447
0	9076	87.939388882711	0.007691462477
0	9081	88.081373262666	0.007710100231
0	9086	88.118915341174	0.007714348689
0	9091	88.128265212978	0.007716049383
0	9096	88.150394788845	0.00771860183
0	9104	88.262048751991	0.007732243455
0	9107	88.26978270404	0.010419056669
0	9117	88.316755227617	0.00773993808
0	9120	88.324496021601	0.010188358526
0	9123	88.332237671678	0.015590104917
0	9131	88.46984437595	0.007758811793
0	9136	88.518224790354	0.007765697803
0	9142	88.548532828266	0.007769145394
0	9147	88.600578649139	0.007776049767
0	9152	88.679078422775	0.007786429366
0	9157	88.688435721745	0.007787295583
0	9163	88.810646359429	0.007802920522
0	9173	88.854239230867	0.007809013833
0	9176	88.86204911595	0.012328717431
0	9183	88.90063989062	0.007815116669
0	9188	88.908455879901	0.012536273175
0	9191	88.916272741989	0.008243473615
0	9196	88.941128968457	0.007820355268
0	9201	89.073277842441	0.007836990596
0	9207	89.197980388193	0.007853696847
0	9213	89.289734981694	0.007866052365
0	9220	89.386835756706	0.00787844682
0	9226	89.418918313484	0.007882882883
0	9231	89.495112945337	0.007892659826
0	9236	89.592476641332	0.007906031172
0	9243	89.602421212219	0.007906924206
0	9246	89.610329923099	0.009605615461
0	9251	89.63009589805	0.007911392405
0	9257	89.679360995304	0.007917656374
0	9263	89.69088844501	0.007919447901
0	9270	89.731903588538	0.007924827352
0	9273	89.739829313176	0.008898174977
0	9280	89.820301633871	0.007936507937
0	9285	89.870941592958	0.007942811755
0	9291	89.906721717142	0.007948223004
0	9297	90.012530246989	0.007962689114
0	9303	90.028876413658	0.007964501081
0	9310	90.12572103248	0.007977207977
0	9317	90.217431441491	0.007989955485
0	9322	90.247891610623	0.007994518045
0	9328	90.307491420071	0.008002743798
0	9333	90.334065906688	0.008006405124
0	9339	90.356654275323	0.008009153318
0	9347	90.437754512836	0.008020164986
0	9354	90.490682968415	0.008027522936
0	9362	90.573342445893	0.008038585209
0	9365	90.581381954334	0.015832360952
0	9374	90.704977694872	0.008057090239
0	9379	90.743949937711	0.008062658374
0	9384	90.794285391652	0.008069164265
0	9389	90.812480342579	0.00807195572
0	9396	90.825541935238	0.008073817762
0	9399	90.833616684344	0.015499521214
0	9404	90.879462739508	0.008081274532
0	9409	90.9243145995	0.008087810514
0	9414	90.964537392102	0.008093421205
0	9419	90.99342879986	0.008097165992
0	9424	91.089726756685	0.008110300081
0	9429	91.110815664821	0.008113120074
0	9434	91.126264655703	0.008115942029
0	9440	91.276198609553	0.008136696501
0	9445	91.306573270718	0.008141428239
0	9451	91.331606072028	0.008144269924
0	9458	91.366804986479	0.00814995925
0	9461	91.374955894723	0.013471659619
0	9466	91.425308228856	0.008157557394
0	9472	91.450713731716	0.008161361782
0	9477	91.489075234311	0.00816707502
0	9482	91.543782632314	0.008174705127
0	9487	91.590623810512	0.008181393174
0	9493	91.762393406748	0.008206330598
0	9500	91.999898346884	0.00824014126
0	9505	92.020246240516	0.008243052285
0	9510	92.080811369144	0.008251797713
0	9515	92.11210505205	0.008256664308
0	9520	92.135177315189	0.008259587021
0	9526	92.187198119024	0.008244023083
0	9531	92.283374347097	0.008205368655
0	9538	92.347914161937	0.008179481187
0	9541	92.35608982183	0.008859894724
0	9546	92.476814945506	0.008128193219
0	9553	92.627866198819	0.008070094535
0	9558	92.667001626235	0.008054309055
0	9564	92.795015314747	0.008005489478
0	9569	92.81439984466	0.007998171846
0	9574	92.831165726033	0.007991779884
0	9579	92.876582326756	0.007974481659
0	9584	92.938658167832	0.007951834602
0	9589	92.988781188952	0.007932910245
0	9594	93.040146848302	0.007913181099
0	9600	93.066451836008	0.007904245709
0	9610	93.096305222556	0.007892659826
0	9613	93.104195213539	0.013412225268
0	9616	93.112082537483	0.019677444329
0	9621	93.125651684295	0.007881995271
0	9626	93.140922978179	0.007876673793
0	9631	93.150572710084	0.007873130132
0	9636	93.202707748081	0.007853696847
0	9642	93.243222619872	0.007838745801
0	9647	93.254409706782	0.007835236176
0	9652	93.327984107508	0.007808142777
0	9657	93.405702355408	0.007780371235
0	9665	93.456785407148	0.007762253271
0	9668	93.464544218941	0.012411922866
0	9674	93.508285978388	0.007743362832
0	9680	93.545890811445	0.007730535616
0	9687	93.622331213057	0.007703312424
0	9693	93.666005923675	0.007688083471
0	9698	93.720355531111	0.007668711656
0	9704	93.752151929513	0.007657805492
0	9712	93.947421930703	0.007626933973
0	9717	94.063028416171	0.007622781226
0	9723	94.086063468849	0.00762195122
0	9730	94.11400142249	0.007621121394
0	9735	94.121622543884	0.012497743124
0	9739	94.129242835632	0.010391498298
0	9744	94.156084689609	0.007619462284
0	9750	94.221867092035	0.007617803896
0	9758	94.303108331368	0.007614489285
0	9764	94.390252246513	0.00761200522
0	9769	94.416213319926	0.007611177558
0	9774	94.43846121403	0.007610350076
0	9779	94.466392393816	0.007609522774
0	9787	94.684138897769	0.007602085143
0	9792	94.756522105783	0.007599609163
0	9797	94.800621695526	0.007597959405
0	9806	94.920424796722	0.007593838143
0	9813	94.928018634865	0.012082711362
0	9816	94.935611649292	0.012135619357
0	9819	94.943204663719	0.018133268983
0	9824	94.955984747452	0.007593014427
0	9830	94.994083660596	0.007591367531
0	9835	95.045791698012	0.007589721349
0	9840	95.103285696277	0.007588075881
0	9845	95.128738583249	0.007587253414
0	9850	95.142127107886	0.007586431126
0	9856	95.162717889066	0.007585609016
0	9862	95.245460795528	0.007583143755
0	9869	95.303559559736	0.007580680095
0	9872	95.311140239831	0.012235628279
0	9882	95.509890817641	0.007574118156
0	9885	95.517464935797	0.007939995292
0	9890	95.549785179176	0.007572479446
0	9895	95.557977960134	0.007572479446
0	9900	95.578008944816	0.007571660357
0	9905	95.661058151356	0.007569204152
0	9911	95.747240324053	0.00756593169
0	9916	95.76714392239	0.00756593169
0	9922	95.789869163228	0.007565114017
0	9929	95.814965127509	0.00756429652
0	9932	95.822528606709	0.009823374391
0	9937	95.859429023234	0.007562662057
0	9943	95.868672325655	0.00756184509
0	9948	95.936737129106	0.007560211686
0	9954	95.991927183103	0.007557762902
0	9959	96.052019704511	0.007556131261
0	9965	96.072349517054	0.007555315704
0	9970	96.092797937804	0.007554500324
0	9978	96.346026657652	0.00754147813
0	9983	96.365924900417	0.007540665733
0	9988	96.378528558384	0.007539853511
0	9994	96.498742632937	0.007534172855
0	9999	96.55909573771	0.007530930608
0	10006	96.691574306807	0.007524454477
0	10011	96.763534103521	0.007520412548
0	10016	96.794016341729	0.007519604684
0	10023	96.858765079378	0.00751637496
0	10026	96.86628064734	0.008621080239
0	10031	96.880295525739	0.007514761138
0	10036	96.909372090049	0.007513148009
0	10041	96.972157831693	0.007510729614
0	10049	97.090485715476	0.007504288165
0	10052	97.097990003641	0.013713016349
0	10057	97.125932052422	0.007502679528
0	10062	97.169574806365	0.007500267867
0	10067	97.201201461056	0.007499464324
0	10072	97.210948006481	0.007498660953
0	10079	97.231670265922	0.007497857755
0	10083	97.23916732065	0.013386615087
0	10090	97.339317716254	0.00749224018
0	10093	97.346809956434	0.011076468778
0	10099	97.398219857786	0.007489033915
0	10104	97.471149958888	0.007485830392
0	10110	97.482788725013	0.00748502994
0	10115	97.535990661681	0.00748262961
0	10120	97.550013498029	0.007481829842
0	10127	97.56531348362	0.007481030245
0	10130	97.572794513865	0.008125636737
0	10136	97.613552147018	0.007478632479
0	10141	97.64797335862	0.007477034822
0	10149	97.686578680806	0.007475437847
0	10152	97.694053320422	0.007637772384
0	10158	97.777337172273	0.007470651014
0	10165	97.795956178316	0.007469853804
0	10168	97.803425235081	0.013053542248
0	10173	97.813312794691	0.007469056765
0	10178	97.858126002146	0.007466666667
0	10187	97.966301194225	0.007461095715
0	10193	97.97376228994	0.007964579641
0	10198	97.981223385655	0.0136100777
0	10201	97.988683686199	0.008656594436
0	10206	98.016716617906	0.007458710709
0	10211	98.068684455943	0.007456327226
0	10216	98.120775150607	0.007453945267
0	10223	98.156452272849	0.007452358139
0	10226	98.163903837678	0.012839502032
0	10231	98.223895645822	0.00744918591
0	10236	98.278792433549	0.007446016381
0	10243	98.315159427952	0.007444432628
0	10246	98.32260386058	0.012061866161
0	10251	98.413968898436	0.007439685408
0	10256	98.454833003198	0.007437314067
0	10262	98.493023933101	0.007435734013
0	10267	98.506052332353	0.007434944238
0	10272	98.523163994071	0.00743415463
0	10277	98.543917469516	0.007433365191
0	10282	98.569578837097	0.007431786814
0	10288	98.594026787946	0.007430997877
0	10295	98.616845408507	0.007429420505
0	10298	98.624274829012	0.014156991085
0	10305	98.664935823333	0.007427843803
0	10310	98.674945853944	0.007427055703
0	10316	98.756075341202	0.007423117709
0	10321	98.847342941463	0.007418397626
0	10326	98.889779416785	0.007416825599
0	10331	98.95045144902	0.007413683542
0	10336	99.023592744646	0.007409759712
0	10341	99.032853458507	0.007409759712
0	10346	99.059284700504	0.007408191343
0	10352	99.082737094655	0.007407407407
0	10360	99.095201124332	0.007415254237
0	10363	99.102625029306	0.01287580985
0	10372	99.211903639091	0.007497054728
0	10379	99.385134341942	0.007508312775
0	10385	99.432206109529	0.007510729614
0	10390	99.460926088892	0.007513148009
0	10398	99.568667215285	0.007519604684
0	10402	99.576187627833	0.00822747999
0	10408	99.70342236128	0.007528500753
0	10415	99.800292394548	0.007534983854
0	10421	99.859064493219	0.007539041465
0	10426	99.876974414361	0.007539853511
0	10432	99.946361208762	0.007544729468
0	10439	100.004250421121	0.00754798361
0	10442	100.011799218705	0.012057019106
0	10447	100.022472346943	0.007549611734
0	10452	100.06611894183	0.007552055238
0	10457	100.082598631228	0.007553685119
0	10463	100.245073246586	0.00756429652
0	10470	100.294157648876	0.007567567568
0	10475	100.310921789268	0.007568385771
0	10480	100.325053969259	0.007569204152
0	10485	100.392657906664	0.007574118156
0	10492	100.433987486842	0.007576577552
0	10495	100.441564064394	0.008521988807
0	10500	100.468182374583	0.007579038545
0	10505	100.609079750765	0.007588075881
0	10512	100.641199137697	0.00759054435
0	10517	100.648789682047	0.013189606458
0	10520	100.656381049578	0.013985946345
0	10526	100.741863407555	0.007597134795
0	10531	100.802256708833	0.007600434311
0	10536	100.810941971455	0.007601259637
0	10541	100.823696086568	0.007602085143
0	10546	100.861151070404	0.007604562738
0	10551	100.885217337853	0.007606215365
0	10557	101.083134881801	0.007619462284
0	10562	101.092498485284	0.007620291748
0	10569	101.191872608432	0.007626933973
0	10572	101.199499542405	0.008785307548
0	10577	101.280576671906	0.007632755425
0	10582	101.346106525071	0.007636919049
0	10587	101.38378737843	0.007639419404
0	10592	101.395511310684	0.00764025322
0	10597	101.417665233456	0.007641921397
0	10602	101.440819816268	0.007643590304
0	10607	101.470534267757	0.007645259939
0	10612	101.489461949379	0.007646930304
0	10617	101.534400603929	0.00764943722
0	10624	101.670290826086	0.007658643326
0	10629	101.697624063307	0.007660319545
0	10636	101.71735018323	0.007661996497
0	10639	101.725013018479	0.0138779571
0	10644	101.761661914368	0.007665352606
0	10650	101.899513116283	0.007674597084
0	10657	101.939648927829	0.007677122176
0	10660	101.947326892072	0.013239750249
0	10666	102.039307485623	0.007683863886
0	10671	102.064161878938	0.007685551164
0	10676	102.095883018235	0.007687239183
0	10681	102.108013434417	0.007688083471
0	10687	102.162048563648	0.007692307692
0	10692	102.248469048187	0.007698229407
0	10697	102.2805895515	0.007699923001
0	10703	102.487723697059	0.007714348689
0	10708	102.521004338316	0.007716900011
0	10715	102.549109291585	0.00771860183
0	10722	102.600769006551	0.007722007722
0	10725	102.608491866216	0.008477088663
0	10730	102.673886872787	0.007727122199
0	10735	102.687010526025	0.00772797527
0	10740	102.717947044264	0.007729681979
0	10750	102.775332246037	0.007733952049
0	10753	102.783067052667	0.011788847826
0	10758	102.803810508657	0.007735661399
0	10763	102.824569044541	0.007737371504
0	10770	102.897424694197	0.00774250636
0	10775	102.905168057029	0.013030489216
0	10778	102.912911419861	0.013684334258
0	10783	103.009726999549	0.007750221435
0	10788	103.057132974777	0.007753655295
0	10793	103.102831299027	0.007756232687
0	10798	103.138827564357	0.007758811793
0	10803	103.187663353406	0.007762253271
0	10808	103.272356996158	0.007768283209
0	10813	103.302903906066	0.007770870337
0	10818	103.346553188274	0.007773459189
0	10823	103.362322495442	0.007774322523
0	10828	103.372360186081	0.007775186049
0	10836	103.596758864084	0.007790762382
0	10843	103.730676306326	0.007800312012
0	10849	103.792284151001	0.007804660497
0	10856	103.925712007342	0.007814244251
0	10861	104.018812578049	0.007820355268
0	10868	104.039476110425	0.007822103028
0	10871	104.047298213453	0.010549655845
0	10878	104.064441106267	0.00782385157
0	10881	104.072264957837	0.015338150321
0	10886	104.089841299286	0.007825600894
0	10894	104.167063583091	0.007830853563
0	10897	104.174895312784	0.011170829891
0	10902	104.185927256317	0.007831729693
0	10908	104.197909912467	0.00783260602
0	10915	104.248943041087	0.007836990596
0	10921	104.340567546514	0.007843137255
0	10926	104.381601309782	0.00784577449
0	10931	104.421583876268	0.007848413499
0	10937	104.440633290754	0.007850173825
0	10943	104.732303048684	0.007870474477
0	10952	104.877011517522	0.007881107859
0	10955	104.884893512793	0.011507691929
0	10961	105.036260160904	0.007892659826
0	10966	105.08873448921	0.007896221094
0	10972	105.131966309628	0.007899785577
0	10979	105.214176207433	0.00790513834
0	10986	105.265010384148	0.00790871088
0	10991	105.294448687107	0.007911392405
0	10998	105.35850510015	0.007915865656
0	11003	105.396702827445	0.007918552036
0	11009	105.491354976263	0.007924827352
0	11015	105.617651974435	0.007934708683
0	11020	105.666079076314	0.007937407869
0	11025	105.690123546027	0.007939208348
0	11030	105.792011586683	0.007947320618
0	11036	105.825393019365	0.007949125596
0	11041	105.910742483358	0.007955449483
0	11046	105.955332857536	0.007959067652
0	11051	105.992336786516	0.007961783439
0	11056	106.040256795544	0.007965407374
0	11061	106.051142485762	0.007965407374
0	11066	106.110561363474	0.007969941933
0	11071	106.124949347359	0.007970849465
0	11076	106.134387781733	0.007971757203
0	11081	106.151772000819	0.0079735733
0	11087	106.165909036271	0.007974481659
0	11092	106.199688833596	0.007976298997
0	11097	106.231424617965	0.007979026559
0	11102	106.270013776044	0.007981755986
0	11111	106.42495412344	0.007992692396
0	11114	106.432947728556	0.01324749799
0	11119	106.446241031538	0.007994518045
0	11126	106.479726347703	0.007997258083
0	11131	106.526006740897	0.00800091439
0	11139	106.658376622442	0.008010069802
0	11145	106.678742569921	0.00801465537
0	11151	106.776234043806	0.008083140878
0	11158	106.828033647482	0.008120649652
0	11169	106.952297029133	0.008210180624
0	11172	106.960512991574	0.015162776157
0	11178	107.117737382589	0.008333333333
0	11184	107.228673235642	0.008286965787
0	11190	107.320804761734	0.008186177055
0	11197	107.341131973175	0.008164217401
0	11200	107.349286679606	0.014979280888
0	11207	107.361706725065	0.008141428239
0	11210	107.369839640134	0.009540414052
0	11215	107.500854745575	0.007994518045
0	11220	107.518008348439	0.007977207977
0	11225	107.556618247423	0.007937407869
0	11230	107.583573452965	0.00790960452
0	11235	107.616206073232	0.007876673793
0	11241	107.647235644357	0.00784577449
0	11247	107.714405986399	0.007779506557
0	11252	107.76371586546	0.007731389441
0	11257	107.851192719364	0.007646930304
0	11262	107.876609657905	0.007623611414
0	11269	107.901284796457	0.007600434311
0	11272	107.908877810884	0.008302290193
0	11277	107.941384475913	0.007562662057
0	11283	107.98887563885	0.007518796992
0	11288	108.114175395857	0.007405840034
0	11293	108.15113725966	0.007373077733
0	11300	108.169964586678	0.007356805045
0	11303	108.177314439681	0.012657954973
0	11312	108.185552659261	0.007342914088
0	11319	108.192888647523	0.013475926038
0	11323	108.200218490455	0.017915743915
0	11326	108.207542198344	0.0176499652
0	11329	108.214859781451	0.022244933674
0	11334	108.239190653493	0.007296226808
0	11343	108.312598100884	0.007233646791
0	11346	108.319828758874	0.011123360065
0	11351	108.422030070085	0.007262164125
0	11359	108.559087751941	0.007306126709
0	11364	108.570975483503	0.00730994152
0	11370	108.628189672493	0.007328308208
0	11375	108.63933333613	0.007331378299
0	11382	108.713451080672	0.00735525901
0	11388	108.925605641883	0.007424692406
0	11395	108.945914493009	0.007431786814
0	11402	108.958688626262	0.007435734013
0	11405	108.966126730608	0.008122106392
0	11410	109.049208683862	0.007465870307
0	11416	109.085151870016	0.007477833565
0	11421	109.128224852958	0.00749224018
0	11428	109.180032973623	0.007509923828
0	11432	109.187545315327	0.008725443444
0	11440	109.214447934227	0.007521220587
0	11443	109.221971579971	0.014100566629
0	11448	109.236708073266	0.00752931053
0	11454	109.279165901511	0.007543103448
0	11460	109.389091550196	0.007580680095
0	11465	109.44221842536	0.007599609163
0	11473	109.460499300394	0.007605388961
0	11476	109.468107169104	0.01182060352
0	11483	109.486610520592	0.007614489285
0	11488	109.503245132623	0.007620291748
0	11493	109.573917376089	0.007645259939
0	11498	109.660787515627	0.007675438596
0	11507	109.881406807047	0.007753655295
0	11512	109.890097130845	0.007757092199
0	11518	109.968641734252	0.007785563341
0	11523	110.005478565564	0.007798573975
0	11528	110.214231165934	0.007875787579
0	11533	110.287881744719	0.00790335328
0	11538	110.312311976721	0.007912286651
0	11543	110.336921805447	0.00792124024
0	11550	110.443956616467	0.007959067652
0	11555	110.469572711405	0.007962689114
0	11560	110.479708291698	0.007963594994
0	11567	110.516847992393	0.00796812749
0	11574	110.530149768818	0.007969941933
0	11578	110.538120618283	0.015926961324
0	11583	110.645441658307	0.007984487282
0	11590	110.692715254529	0.00799086758
0	11596	110.702684757016	0.007991779884
0	11601	110.710911446174	0.007992692396
0	11608	110.731955113799	0.007995431182
0	11611	110.739952371882	0.011818280555
0	11616	110.757103723843	0.007999085819
0	11623	110.766721018362	0.008
0	11630	110.780668953257	0.008001828989
0	11635	110.788671697055	0.013348294956
0	11638	110.796676271097	0.010575485063
0	11643	110.866764181386	0.008012820513
0	11648	110.875194320581	0.00801465537
0	11655	110.954719900815	0.008024762123
0	11660	110.98848615294	0.008028443629
0	11665	111.051370863493	0.00803673938
0	11672	111.128207841919	0.008046901943
0	11675	111.136255669006	0.012817508346
0	11683	111.256014276059	0.008063587144
0	11686	111.264078792188	0.014535416528
0	11691	111.300510788944	0.008069164265
0	11696	111.351812178969	0.008075680665
0	11701	111.376760220145	0.008079409049
0	11708	111.628038766257	0.008112179859
0	11713	111.652419945899	0.008115942029
0	11718	111.68603180728	0.008119707691
0	11725	111.755928892018	0.00812913715
0	11728	111.764058973319	0.011433115549
0	11733	111.854996542982	0.008142375247
0	11738	111.875242973351	0.008145217594
0	11743	111.992709206694	0.008160410352
0	11749	112.080933835709	0.008172796264
0	11754	112.118676254205	0.008177570093
0	11759	112.14235594148	0.008180437069
0	11766	112.155993234083	0.008182349503
0	11770	112.164177496915	0.01363727833
0	11775	112.175357147306	0.008185219832
0	11782	112.26095249125	0.008196721311
0	11785	112.269150172477	0.009625550336
0	11790	112.292157718423	0.008200562324
0	11796	112.572281494352	0.008239171375
0	11801	112.614483647996	0.008244994111
0	11808	112.657360609698	0.008250825083
0	11811	112.665612407411	0.011082306458
0	11818	112.798513922824	0.008270321361
0	11825	112.853810471716	0.008277166844
0	11830	112.862088617411	0.010137029187
0	11833	112.870368721504	0.015482387595
0	11839	113.004787130352	0.008298755187
0	11847	113.063851253513	0.00830663344
0	11850	113.072158872787	0.00831369403
0	11856	113.120281399519	0.008314526666
0	11862	113.249468407655	0.008332341388
0	11867	113.262710828983	0.008334325515
0	11874	113.280807410414	0.008336310587
0	11877	113.289144713892	0.011451391402
0	11885	113.362807834705	0.008348240906
0	11890	113.375123445016	0.008349236641
0	11896	113.39070743293	0.008352225271
0	11901	113.404681899399	0.008354218881
0	11906	113.460635528133	0.008361204013
0	11911	113.480218033042	0.008364201219
0	11917	113.510031329192	0.008368200837
0	11922	113.529155199666	0.008371203061
0	11928	113.571569401381	0.008377213978
0	11934	113.641700846594	0.008387251378
0	11939	113.684845290853	0.008393285372
0	11945	113.782289719569	0.008407398511
0	11950	113.836894373876	0.008414472893
0	11957	113.845419980261	0.008416496333
0	11962	113.853837488679	0.009786178947
0	11965	113.862256009425	0.015942287582
0	11970	113.913920613211	0.008425613866
0	11976	113.927974331549	0.008427642668
0	11982	114.046214637858	0.008444927012
0	11987	114.058388147371	0.008445945946
0	11992	114.07458209943	0.008449004225
0	11997	114.14373072631	0.008458192363
0	12003	114.157017622928	0.008460236887
0	12009	114.19018158442	0.008465352521
0	12014	114.268450589256	0.008476628724
0	12020	114.4271627523	0.008499271491
0	12026	114.468672601641	0.008505467801
0	12031	114.489849543768	0.008508569345
0	12036	114.519519696072	0.008512708257
0	12041	114.542657973476	0.008515815085
[...]
19	21539	201.009831356604	1.2644465388945
19	21694	202.274277895498	1.8879529790153
19	21864	204.162230874513	2.3336175289544
19	22125	206.495848403467	1.1701720611199
19	22224	207.666020464587	1.2002221035251
19	22365	208.866242568112	2.5721321908067
19	22635	211.438374758919	3.0134394196563
19	22970	214.451814178575	0.8672350553382
19	23086	215.319049233913	0.13216308017689
19	23105	215.45121231409	1.5946272057371
19	23281	217.045839519827	0.17255787008879
19	23313	217.218397389916	0.050455046213142
19	23321	217.268852436129	1.586033101265
19	23488	218.854885537394	3.2250284903814
19	23816	222.079914027775	4.405474552687
19	24285	226.485388580462	1.7556280530783
19	24460	228.24101663354	1.3733386281165
19	24581	229.614355261656	2.5900853579932
19	24856	232.204440619649	0.79201101045083
19	24978	232.9964516301	1.7214800750572
19	25153	234.717931705157	1.9235128373308
19	25356	236.641444542488	6.1639842108698
19	26151	242.805428753358	0.94274031640945
19	26262	243.748169069767	0.072562825116077
19	26273	243.820731894883	2.4772981349311
19	26533	246.298030029814	1.2325889678188
19	26674	247.530618997633	0.17312763531997
19	26697	247.703746632953	0.72734745517099
19	26824	248.431094088124	4.1634696894136
19	27240	252.594563777538	1.0994238105435
19	27355	253.693987588081	5.5849015350415
19	27957	259.278889123123	3.1865384187521
19	28266	262.465427541875	3.0726584882263
19	28604	265.538086030101	1.5914599821445
19	28760	267.129546012246	0.49165684406961
19	28829	267.621202856316	7.0215324865986
19	29496	274.642735342915	2.912513505917
19	29746	277.555248848832	1.0928761178969
19	29870	278.648124966729	3.7585923613758
19	30304	282.406717328105	0.042023090840563
19	30311	282.448740418946	0.58036655389751
19	30371	283.029106972844	0.93693188396379
19	30469	283.966038856808	2.7919503327523
19	30730	286.75798918956	3.7562970444363
19	31144	290.514286233996	1.1006095698332
19	31320	291.614895803829	1.4899193250723
19	31472	293.104815128901	2.210822034514
19	31671	295.315637163415	0.39184085952587
19	31709	295.707478022941	3.4113092121115
19	32104	299.118787235052	2.2597329472814
19	32295	301.378520182333	0.70952732826447
19	32347	302.088047510597	1.5038183892089
19	32495	303.591865899806	1.1307134916103
19	32638	304.722579391416	0.73022787050167
19	32749	305.452807261918	0.76080947931961
19	32807	306.213616741238	0.14981633500247
19	32830	306.36343307624	0.32317863099675
19	32856	306.686611707237	4.7996001563205
19	33363	311.486211863558	1.6340904503034
19	33581	313.120302313861	1.1655456048973
19	33709	314.285847918758	2.1750066498658
19	33959	316.460854568624	0.17330268848482
19	33978	316.634157257109	0.86766909931074
19	34096	317.50182635642	4.4497489516666
19	34581	321.951575308087	6.9193781532469
19	35437	328.870953461334	0.1474035398402
19	35449	329.018357001174	0.35763553672396
19	35502	329.375992537898	2.8259776142047
19	35772	332.201970152103	5.853135735565
19	36441	338.055105887668	1.1206021263453
19	36582	339.175708014013	1.7538868279109
19	36809	340.929594841924	1.779868136662
19	37062	342.709462978586	2.3278211182383
19	37330	345.037284096824	1.2267474662825
19	37453	346.264031563106	1.7556513558481
19	37629	348.019682918954	3.7550781660661
19	38072	351.77476108502	0.051339612253131
19	38078	351.826100697273	0.27449943348722
19	38104	352.10060013076	0.1207504836076
19	38123	352.221350614368	0.205777704809
19	38147	352.427128319177	3.5571532563319
19	38514	355.984281575509	4.6449661714064
19	38993	360.629247746915	3.7167300685412
19	39403	364.345977815456	1.8416418688319
19	39645	366.187619684288	1.6694668348114
19	39855	367.857086519099	0.53183546611609
19	39895	368.388921985215	6.1561907107479
19	40579	374.545112695963	4.6982101635073
19	41017	379.24332285947	0.42463305281678
19	41056	379.667955912287	4.7393364989278
19	41552	384.407292411215	2.1380197925078
19	41806	386.545312203723	2.3170256216665
19	41976	388.862337825389	1.054417852962
19	42074	389.916755678351	0.1398417030957
19	42094	390.056597381447	0.398639620162
19	42142	390.455237001609	3.7209383629583
19	42523	394.176175364567	1.93060696376
19	42747	396.106782328327	2.6659974742901
19	43000	398.772779802617	4.0388873149165
20	1360	12.373420248254	1.9429446058523
20	1584	14.316364854106	5.090547434846
20	1998	19.406912288952	0.091582037621151
20	2025	19.498494326573	3.7132518764525
20	2417	23.211746203026	4.9082051063482
20	2976	28.119951309374	0.55241623197827
20	3013	28.672367541352	0.69396222561914
20	3095	29.366329766971	7.1213866183614
20	3862	36.487716385332	0.67250235073791
20	3931	37.16021873607	3.6913523179346
20	4291	40.851571054005	1.8500066229907
20	4518	42.701577676996	9.2916437317078
20	5544	51.993221408704	6.4831915158205
20	6225	58.476412924524	1.8079135828104
20	6384	60.284326507334	5.0302310008179
20	6846	65.314557508152	2.1799385813297
20	7053	67.494496089482	0.020350571532446
20	7056	67.514846661014	5.2657370688757
20	7597	72.78058372989	0.9906169504284
20	7679	73.771200680318	0.90047228470764
20	7774	74.671672965026	0.27647087419397
20	7807	74.94814383922	2.4202590153632
20	8058	77.368402854583	1.5953217733978
20	8188	78.963724627981	0.22580111826074
20	8196	79.189525746242	0.86568652538028
20	8282	80.055212271622	2.7897949215119
20	8555	82.845007193134	2.4558222554645
20	8845	85.300829448599	0.84808453182304
20	8908	86.148913980422	3.5388956341443
20	9262	89.687809614566	3.7273552246982
20	9660	93.415164839264	1.5673686521361
20	9827	94.9825334914	2.382417255842
20	10096	97.364950747242	0.11198579623911
20	10109	97.476936543481	2.3351231813154
20	10418	99.812059724796	0.45230505226021
20	10467	100.264364777056	2.2724548321341
20	10712	102.53681960919	2.6899630186513
20	10983	105.226782627841	0.26276469931107
20	11008	105.489547327152	2.4844399111968
20	11280	107.973987238349	1.7489965507539
20	11503	109.722983789103	0.95773636409338
20	11587	110.680720153196	1.4802836031994
20	11769	112.161003756395	0.85367218918133
20	11842	113.014675945576	0.2809844655463
20	11880	113.295660411122	0.084006014451103
20	11893	113.379666425573	0.12851846681019
20	11916	113.508184892383	0.028727384171333
20	11925	113.536912276554	0.053390555351287
20	11931	113.590302831905	3.2338527001469
20	12287	116.824155532052	6.5395146563285
20	13049	123.36367018838	0.055333109233028
20	13055	123.419003297613	0.50401359343028
20	13097	123.923016891043	0.8749792724664
20	13186	124.797996163509	0.97626714259757
20	13286	125.774263306107	3.3289260486365
20	13646	129.103189354743	2.7684930616507
20	13928	131.871682416394	4.2584744549681
20	14340	136.130156871362	3.1638852846321
20	14738	139.294042155994	2.2996881413008
20	15034	141.593730297295	0.68038848434312
20	15091	142.274118781638	0.045334012633997
20	15092	142.319452794272	0.37059008526175
20	15139	142.690042879534	0.25615576539775
20	15147	142.946198644932	1.7267549286329
20	15313	144.672953573565	2.2993755223323
20	15567	146.972329095897	7.1171207339354
20	16335	154.089449829832	0.37469027743328
20	16387	154.464140107265	0.98684555611325
20	16470	155.450985663378	1.209446655217
20	16603	156.660432318595	6.4760535482813
20	17339	163.136485866876	5.0760651204441
20	17927	168.21255098732	2.4840689922067
20	18142	170.696619979527	0.079518670673511
20	18148	170.776138650201	0.60645871740441
20	18190	171.382597367605	2.3448799047751
20	18446	173.72747727238	1.6086861450364
20	18657	175.336163417416	5.0412190350794
20	19180	180.377382452495	2.247762685062
20	19424	182.625145137557	0.09896972611262
20	19443	182.72411486367	0.68436666241214
20	19569	183.408481526082	0.92753060853203
20	19688	184.336012134614	0.053375267839843
20	19694	184.389387402454	0.053486400404416
20	19708	184.442873802858	0.77400689054169
20	19806	185.2168806934	5.0171313735108
20	20270	190.234012066911	0.040884974519204
20	20276	190.27489704143	3.4165074729169
20	20620	193.691404514347	0.20696977779729
20	20651	193.898374292144	0.38610840135407
20	20703	194.284482693498	0.28286293155805
20	20730	194.567345625056	0.24216820189615
20	20752	194.809513826952	0.63917813070244
20	20805	195.448691957654	3.6211255080346
20	21309	199.069817465689	0.15980646050075
20	21324	199.22962392619	0.98732858312701
20	21454	200.216952509317	0.71561352603112
20	21537	200.932566035348	2.87476184026
20	21834	203.807327875608	3.0606364909669
20	22166	206.867964366575	8.1301943710397
20	23026	214.998158737615	0.39507341921121
20	23099	215.393232156826	1.6725278654274
20	23292	217.065760022253	1.4530565726873
20	23454	218.51881659494	1.7427314815518
20	23602	220.261548076492	0.25139668189339
20	23627	220.512944758385	1.5119108803079
20	23807	222.024855638693	1.8746766453221
20	24033	223.899532284015	0.12801236207264
20	24059	224.027544646088	1.4155127207841
20	24157	225.443057366872	0.67554620709932
20	24243	226.118603573971	7.4081301642012
20	25019	233.526733738172	0.95873202652359
20	25123	234.485465764696	0.91760259930648
20	25193	235.403068364002	1.09348947801
20	25341	236.496557842012	0.14241516456811
20	25355	236.63897300658	3.5986863957275
20	25844	240.237659402307	0.25845895984814
20	25890	240.496118362155	5.7001866168735
20	26518	246.196304979029	0.72908293463297
20	26594	246.925387913662	0.39441533576639
20	26645	247.319803249428	7.0812138854044
20	27449	254.401017134832	1.6783774152799
20	27587	256.079394550112	0.79801080423776
20	27668	256.87740535435	4.1529147691342
20	28115	261.030320123484	2.8705679339022
20	28451	263.900888057386	4.9266888708896
20	28955	268.827576928276	1.1370927555386
20	29044	269.964669683815	1.637138513277
20	29199	271.601808197092	3.3067076510885
20	29504	274.90851584818	2.798922055028
20	29782	277.707437903208	3.5429567825252
20	30187	281.250394685733	4.1997422090726
20	30588	285.450136894806	0.089906100837919
20	30596	285.540042995644	0.45245767318
20	30638	285.992500668824	1.3407904873426
20	30777	287.333291156167	1.3675825645893
20	30943	288.700873720756	2.0809337594666
20	31173	290.781807480223	2.5052484218852
20	31494	293.287055902108	2.1486861805891
20	31677	295.435742082697	0.65033162272239
20	31746	296.086073705419	0.64175542079444
20	31789	296.727829126213	0.32067240686096
20	31839	297.048501533074	1.4735192132718
20	32038	298.522020746346	1.4974778009712
20	32165	300.019498547317	8.0731064554325
20	33024	308.092605002749	1.0805703135283
20	33128	309.173175316277	7.6292426438969
20	34003	316.802417960174	4.1359042573276
20	34477	320.938322217502	0.69601555537699
20	34566	321.634337772879	0.11983717938024
20	34573	321.754174952259	0.65668792374266
20	34640	322.410862876002	0.5494964859284
20	34691	322.96035936193	0.23720973710341
20	34730	323.197569099033	1.9915157526732
20	34977	325.189084851706	0.08370506790597
20	34994	325.272789919612	0.55072083412247
20	35046	325.823510753734	0.65914001495537
20	35127	326.482650768689	2.5648552132503
20	35455	329.047505981939	7.5326322326289
20	36283	336.580138214568	1.4160920257528
20	36435	337.996230240321	3.5694545428031
20	36887	341.565684783124	0.0017360866345056
20	36888	341.567420869759	3.6156356736928
20	37346	345.183056543452	0.68038965825956
20	37425	345.863446201712	0.75992750519525
20	37471	346.623373706907	3.3982525469446
20	37847	350.021626253852	0.10407818602022
20	37868	350.125704439872	0.30254617391267
20	37909	350.428250613785	1.7725065203586
20	38115	352.200757134144	0.75877625322236
20	38218	352.959533387366	4.4839035703063
20	38682	357.443436957672	4.7146339673613
20	39160	362.158070925033	6.2259254281099
20	39894	368.383996353143	0.46208603676244
20	39936	368.846082389905	1.6959921026565
20	40118	370.542074492562	3.2007239457241
20	40500	373.742798438286	2.7724484215525
20	40750	376.515246859838	0.011165906354579
20	40751	376.526412766193	0.22798736251014
20	40777	376.754400128703	0.42119382351934
20	40817	377.175593952222	3.4448069117807
20	41165	380.620400864003	1.7411089602072
20	41334	382.36150982421	3.5132159538683
20	41712	385.874725778078	2.9112165117463
20	41970	388.785942289824	0.86983137280595
20	42050	389.65577366263	0.28816065080242
20	42080	389.943934313432	5.4461678874835
20	42670	395.390102200915	2.0856069417364
20	42895	397.475709142651	4.3645537246887
21	1874	18.201114573328	0.91576308677234
21	1982	19.1168776601	0.82160873664617
21	2075	19.938486396746	0.17073954548073
21	2097	20.109225942227	0.24922388730967
21	2133	20.358449829537	0.10061049504957
21	2147	20.459060324587	0.53627637599527
21	2198	20.995336700582	4.3389877646186
21	2674	25.334324465201	2.547676917526
21	2941	27.882001382727	0.26458563418974
21	2977	28.146587016917	0.029693040863292
21	2978	28.17628005778	1.9909766316639
21	3167	30.167256689444	1.7004406164228
21	3351	31.867697305867	0.24836101979278
21	3365	32.11605832566	0.10875056418998
21	3379	32.22480888985	0.33370280467651
21	3398	32.558511694527	0.13130349334261
21	3419	32.68981518787	4.0816429061799
21	3867	36.77145809405	3.3894921041288
21	4235	40.160950198179	1.5193432467348
21	4416	41.680293444914	2.1321104331824
21	4636	43.812403878096	2.4506553859374
21	4885	46.263059264033	1.3232397322939
21	5007	47.586298996327	0.99120098399952
21	5123	48.577499980327	2.6276070817026
21	5424	51.20510706203	1.4950218669943
21	5607	52.700128929024	3.1659656436797
21	5955	55.866094572704	6.6831761286612
21	6567	62.549270701365	0.78275706943382
21	6630	63.332027770799	0.58502249682519
21	6683	63.917050267624	1.4637419273541
21	6856	65.380792194978	0.2132210415901
21	6883	65.594013236568	2.0711826019227
21	7070	67.665195838491	2.857783511758
21	7356	70.522979350249	5.019099805743
21	7890	75.542079155992	0.011662411070361
21	7891	75.553741567062	0.27400575545957
21	7913	75.827747322522	3.5953181843333
21	8213	79.423065506855	3.9700409082532
21	8616	83.393106415108	3.3923471610314
21	8944	86.785453576139	0.012163077557114
21	8945	86.797616653696	3.7145416207262
21	9357	90.512158274422	2.7079980019162
21	9639	93.220156276338	0.36571033818464
21	9683	93.585866614523	5.5373490600064
21	10366	99.123215674529	1.1223304055309
21	10466	100.24554608006	8.4371155209111
21	11379	108.682661600971	0.79805533210945
21	11482	109.48071693308	3.8321018926892
21	11881	113.312818825769	0.029050063819416
21	11882	113.341868889588	3.127453428001
21	12239	116.469322317589	7.3406391634473
21	13081	123.809961481036	1.3209773785454
21	13223	125.130938859581	1.022768508365
21	13319	126.153707367946	0.069913515351667
21	13325	126.223620883298	1.5109361137247
21	13507	127.734556997023	2.8616198740572
21	13787	130.59617687108	0.51114593148391
21	13858	131.107322802564	2.1736044227203
21	14089	133.280927225284	0.24034784735359
21	14108	133.521275072638	0.44997823776038
21	14154	133.971253310398	2.8177485298353
21	14406	136.789001840233	1.3549168960442
21	14584	138.143918736277	8.4515513142667
21	15537	146.595470050544	0.61248919566958
21	15585	147.207959246214	2.6041731652338
21	15874	149.812132411448	4.4252367033371
21	16358	154.237369114785	0.88618394366711
21	16431	155.123553058452	3.1788583846923
21	16794	158.302411443144	1.5942311961783
21	16981	159.896642639322	0.79384472978973
21	17072	160.690487369112	3.3128626446716
21	17415	164.003350013784	1.0907769495743
21	17581	165.094126963358	0.06678917587916
21	17584	165.160916139237	0.31718773343071
21	17628	165.478103872668	0.17465836002858
21	17667	165.652762232697	0.5477147107849
21	17718	166.200476943482	0.040593385784027
21	17724	166.241070329266	0.25455447826272
21	17761	166.495624807529	0.025391907295796
21	17762	166.521016714825	2.2169725271606
21	17993	168.737989241986	0.43813960884266
21	18026	169.176128850829	1.3288376854302
21	18126	170.504966536259	0.27233917243653
21	18149	170.777305708696	0.65955570009025
21	18191	171.436861408786	1.3674598319364
21	18334	172.804321240722	0.99572220220231
21	18452	173.800043442924	0.66971492974679
21	18542	174.469758372671	1.523128048478
21	18715	175.992886421149	1.4433775752414
21	18865	177.43626399639	3.1725093457948
21	19196	180.608773342185	1.3771096436032
21	19361	181.985882985788	0.38654099932608
21	19408	182.372423985114	0.64344237190144
21	19514	183.015866357015	0.90627755074208
21	19637	183.922143907757	1.8916291146148
21	19857	185.813773022372	9.6368447734341
21	20806	195.450617795806	1.5450350882986
21	20994	196.995652884105	4.1154562490947
21	21555	201.1111091332	6.4213418330152
21	22216	207.532450966215	0.6048486082193
21	22282	208.137299574434	0.13856896495576
21	22288	208.27586853939	1.0909221798128
21	22418	209.366790719203	4.3989536981345
21	22895	213.765744417337	0.85694851964686
21	23002	214.622692936984	2.3488346552456
21	23260	216.97152759223	1.1901892613621
21	23422	218.161716853592	0.64635571622627
21	23487	218.808072569818	0.19534992614414
21	23495	219.003422495962	5.0969959487027
21	24060	224.100418444665	2.8199395074979
21	24341	226.920357952163	4.300663122441
21	24755	231.221021074604	3.2621375633326
21	25122	234.483158637937	2.5106897431523
21	25410	236.993848381089	0.57119059446234
21	25490	237.565038975551	6.1350200113045
21	26261	243.700058986856	1.5107990746949
21	26402	245.210858061551	5.8773308441457
21	27122	251.088188905697	0.043608039410648
21	27124	251.131796945108	1.4681519323407
21	27243	252.599948877449	1.3969715337342
21	27398	253.996920411183	1.0057333427624
21	27503	255.002653753945	1.4254374120446
21	27623	256.42809116599	0.37595133437143
21	27659	256.804042500361	3.2881583341474
21	28032	260.092200834508	2.7651455976414
21	28303	262.857346432149	5.7731785989603
21	28931	268.630525031109	0.50766500146008
21	28973	269.138190032569	0.13185289338363
21	28982	269.270042925953	0.029358745238145
21	28988	269.299401671191	5.952913417415
21	29548	275.252315088606	3.9624536404889
21	29921	279.214768729095	0.10184780812641
21	29942	279.316616537221	0.62393053196054
21	30026	279.940547069182	0.87028334575947
21	30144	280.810830414941	0.071022032094739
21	30154	280.881852447036	1.1888949028308
21	30266	282.070747349867	0.066573273699186
21	30272	282.137320623566	1.1732434096422
21	30422	283.310564033208	1.1611885509099
21	30511	284.471752584118	1.1532715127426
21	30611	285.625024096861	0.65813704673098
21	30662	286.283161143592	1.9951182291398
21	30897	288.278279372732	0.19906948035137
21	30929	288.477348853083	6.3852036240394
21	31623	294.862552477122	2.8538586670435
21	31910	297.716411144165	0.74241151614855
21	32030	298.458822660314	8.4061376421703
21	32868	306.864960302484	0.83021342248012
21	32968	307.695173724964	0.81382179876922
21	33066	308.508995523733	2.302923396047
21	33279	310.81191891978	0.017868445968962
21	33280	310.829787365749	1.0234740938633
21	33417	311.853261459612	0.58236531927954
21	33487	312.435626778892	4.5011620937684
21	34021	316.93678887266	1.8512831659449
21	34270	318.788072038605	0.20781948614625
21	34288	318.995891524751	2.176246848961
21	34489	321.172138373712	2.083049323925
21	34742	323.255187697637	4.9360320241766
21	35341	328.191219721814	4.0113048901485
21	35773	332.202524611962	6.5962495323492
21	36530	338.798774144311	1.2067638602372
21	36694	340.005538004548	0.66961438852203
21	36783	340.67515239307	5.1695199144641
21	37424	345.844672307534	9.7648798934024
21	38485	355.609552200936	3.4339032870001
21	38847	359.043455487936	0.46089191118699
21	38915	359.504347399123	1.8418468270322
21	39084	361.346194226155	0.33480482332621
21	39121	361.680999049481	0.89448803134236
21	39210	362.575487080823	1.2852170178712
21	39341	363.860704098694	0.84164597654723
21	39434	364.702350075241	2.8325139934677
21	39830	367.534864068709	1.5620654147254
21	39950	369.096929483434	1.6653354463626
21	40137	370.762264929797	1.029558961627
21	40252	371.791823891424	1.6949919491457
21	40461	373.48681584057	4.6739811489072
21	40906	378.160796989477	0.78875792395849
21	40984	378.949554913435	0.14820324168099
21	41007	379.097758155116	2.0950781079017
21	41222	381.192836263018	1.743048800568
21	41386	382.935885063586	10.706869306366
21	42467	393.642754369952	0.97713667399168
21	42596	394.619891043944	0.6826913506503
21	42659	395.302582394594	1.7068973756735
21	42842	397.009479770267	1.5677389273453
21	42977	398.577218697612	0.70118058029396
21	43070	399.278399277906	0.73158761592543

