file 1757042 1614185368                                         
version 2
run Nonmonitoring-exponential-508-20210224-17:49:28-27046
attr configname Nonmonitoring-exponential
attr datetime 20210224-17:49:28
attr experiment Nonmonitoring-exponential
attr inifile aerocom.ini
attr iterationvars $0=50
attr iterationvarsf 50-
attr measurement $0=50
attr network Aerocom
attr processid 27046
attr repetition 8
attr replication #8
attr resultdir results
attr runnumber 508
attr seedset 8
param **.t 2s
param **.k 50ms
param **.X 0.05s
param **.m 1s
param **.tDistribution "\"exponential\""
param **.operationMode 1
param **.s "70 byte"
param **.dimPoolMax 10000
param **.dimPoolMin 8000
param **.nDL 16
param **.nA 1
param **.DLMaxCapacity 0
param **.trasmitting false

vector 0 Aerocom.aircraft[0].dataLink[9] tDistribution:vector ETV
attr "" ""
attr source computeTDistribution
vector 1 Aerocom.aircraft[0].dataLink[15] tDistribution:vector ETV
attr "" ""
attr source computeTDistribution
vector 2 Aerocom.aircraft[0].packetGenerator arrivalTime:vector ETV
attr "" ""
attr source computeArrivalTime
vector 3 Aerocom.aircraft[0].linkSelector waitingTime:vector ETV
attr "" ""
attr source computeWaitingTime
vector 4 Aerocom.aircraft[0].linkSelector queueLength:vector ETV
attr "" ""
attr source computeQueueLength
vector 5 Aerocom.aircraft[0].dataLink[0] actualCapacity:vector ETV
attr "" ""
attr source computeActualCapacity
vector 6 Aerocom.aircraft[0].linkSelector serviceTime:vector ETV
attr "" ""
attr source computeServiceTime
vector 7 Aerocom.aircraft[0].linkSelector responseTime:vector ETV
attr "" ""
attr source computeResponseTime
vector 8 Aerocom.aircraft[0].dataLink[1] tDistribution:vector ETV
attr "" ""
attr source computeTDistribution
vector 9 Aerocom.aircraft[0].dataLink[7] tDistribution:vector ETV
attr "" ""
attr source computeTDistribution
vector 10 Aerocom.aircraft[0].dataLink[13] tDistribution:vector ETV
attr "" ""
attr source computeTDistribution
vector 11 Aerocom.aircraft[0].dataLink[2] tDistribution:vector ETV
attr "" ""
attr source computeTDistribution
vector 12 Aerocom.aircraft[0].dataLink[14] tDistribution:vector ETV
attr "" ""
attr source computeTDistribution
vector 13 Aerocom.aircraft[0].dataLink[11] tDistribution:vector ETV
attr "" ""
attr source computeTDistribution
vector 14 Aerocom.aircraft[0].dataLink[12] tDistribution:vector ETV
attr "" ""
attr source computeTDistribution
vector 15 Aerocom.aircraft[0].dataLink[0] tDistribution:vector ETV
attr "" ""
attr source computeTDistribution
vector 16 Aerocom.aircraft[0].dataLink[5] tDistribution:vector ETV
attr "" ""
attr source computeTDistribution
vector 17 Aerocom.aircraft[0].dataLink[10] tDistribution:vector ETV
attr "" ""
attr source computeTDistribution
vector 18 Aerocom.aircraft[0].dataLink[6] tDistribution:vector ETV
attr "" ""
attr source computeTDistribution
vector 19 Aerocom.aircraft[0].dataLink[8] tDistribution:vector ETV
attr "" ""
attr source computeTDistribution
vector 20 Aerocom.aircraft[0].dataLink[3] tDistribution:vector ETV
attr "" ""
attr source computeTDistribution
vector 21 Aerocom.aircraft[0].dataLink[4] tDistribution:vector ETV
attr "" ""
attr source computeTDistribution
0	3130 7729 891 43179 10.075409950654 398.42364435373 190 0.0078446133001186 11.319194292811 393.45716134458 1566.8468990977
1	10859 7245 892 43267 10.095665880154 399.283336586055 178 0.019405904890573 13.266950363132 396.25352929529 1839.5269143198
2	18104 309766 893 43357 10.105600204358 399.963918388118 7876 1.0936495e-05 0.493843544015 389.9087709732 38.694933738914
3	327870 224567 894 43358 10.105600204358 399.963918388118 7876 0 0.022987908133 5.848581366415 0.039484827911982
4	552437 208308 894 43358 10.105600204358 399.963918388118 7876 0 2 109 125
5	760745 231936 894 43358 10.105600204358 399.963918388118 7876 8023 9992 70656409 635613265995
6	992681 341186 894 43358 10.105600204358 399.963918388118 7876 0.0070056044835869 0.0087249158668827 61.624531084586 0.48349723164189
7	1333867 309843 895 43359 10.113443341613 399.971565318422 7876 0.007005604484 0.031063588798 67.473112450986 0.6151796938117
8	1643710 7542 904 43301 10.264673813091 399.563445666262 185 0.0032097968802019 14.496978703057 391.01234201199 1744.9199056651
9	1651252 7952 950 43141 10.49318455269 398.162582699418 195 0.0062292291547219 11.7261319408 390.18499374546 1510.7132392685
10	1659204 7623 956 43245 10.56178516231 399.086669764424 183 0.0088450509151058 13.06706931286 391.99587010078 1745.9193343828
11	1666827 7517 957 43090 10.634057219738 397.841877839555 180 0.0008506441592696 12.491150096207 390.67333051763 1738.3654265323
12	1674344 9365 984 43082 10.756807889138 397.653306883843 224 0.010114150731874 13.217882404498 389.56880922405 1404.0762479664
13	1683709 8476 1005 43142 10.959676541413 398.174138565252 203 0.0025265923530878 10.626052908186 392.51016319684 1525.5449298853
14	1692185 9189 1064 43200 11.274432352546 398.636493680551 220 0.006217471932323 10.237472488019 389.16607193496 1210.2812404646
15	1701374 8336 1065 43314 11.37074618303 399.64732512419 199 0.0026753684470425 11.432505329211 389.07344121675 1442.1309880191
16	1709710 8294 1167 43351 12.316470921681 399.929897872274 199 0.0011844411622768 11.288806386195 391.49178612901 1409.514517355
17	1718004 7638 1223 43302 12.677146897532 399.563935466918 183 0.0078752398273018 11.94781211367 387.53750559086 1567.5148814015
18	1725642 8214 1356 43350 14.030343813672 399.89221867022 197 0.0077792156032708 11.064858889696 387.03019816002 1477.2795468839
19	1733856 7376 1357 43362 14.063575130962 399.97286146615 177 0.0092617126260935 13.280765520661 386.25084728809 1771.2746386339
20	1741232 8133 1434 43112 15.001723252362 397.963163672176 195 0.011524303744294 11.67638854094 385.61031462937 1498.1485889101
21	1749365 7676 1652 43313 16.96796139798 399.628351478661 184 0.0099656481412919 9.1492380078374 384.65491817593 1484.7768391792

