file 8639377 1614185323                                         
version 2
run Nonmonitoring-exponential-124-20210224-17:48:42-26719
attr configname Nonmonitoring-exponential
attr datetime 20210224-17:48:42
attr experiment Nonmonitoring-exponential
attr inifile aerocom.ini
attr iterationvars $0=10
attr iterationvarsf 10-
attr measurement $0=10
attr network Aerocom
attr processid 26719
attr repetition 24
attr replication #24
attr resultdir results
attr runnumber 124
attr seedset 24
param **.t 2s
param **.k 10ms
param **.X 0.05s
param **.m 1s
param **.tDistribution "\"exponential\""
param **.operationMode 1
param **.s "70 byte"
param **.dimPoolMax 10000
param **.dimPoolMin 8000
param **.nDL 16
param **.nA 1
param **.DLMaxCapacity 0
param **.trasmitting false

vector 0 Aerocom.aircraft[0].linkSelector responseTime:vector ETV
attr "" ""
attr source computeResponseTime
vector 1 Aerocom.aircraft[0].linkSelector waitingTime:vector ETV
attr "" ""
attr source computeWaitingTime
vector 2 Aerocom.aircraft[0].linkSelector queueLength:vector ETV
attr "" ""
attr source computeQueueLength
vector 3 Aerocom.aircraft[0].dataLink[13] actualCapacity:vector ETV
attr "" ""
attr source computeActualCapacity
vector 4 Aerocom.aircraft[0].linkSelector serviceTime:vector ETV
attr "" ""
attr source computeServiceTime
vector 5 Aerocom.aircraft[0].packetGenerator arrivalTime:vector ETV
attr "" ""
attr source computeArrivalTime
vector 6 Aerocom.aircraft[0].dataLink[1] tDistribution:vector ETV
attr "" ""
attr source computeTDistribution
vector 7 Aerocom.aircraft[0].dataLink[3] tDistribution:vector ETV
attr "" ""
attr source computeTDistribution
vector 8 Aerocom.aircraft[0].dataLink[7] tDistribution:vector ETV
attr "" ""
attr source computeTDistribution
vector 9 Aerocom.aircraft[0].dataLink[11] tDistribution:vector ETV
attr "" ""
attr source computeTDistribution
vector 10 Aerocom.aircraft[0].dataLink[12] tDistribution:vector ETV
attr "" ""
attr source computeTDistribution
vector 11 Aerocom.aircraft[0].dataLink[13] tDistribution:vector ETV
attr "" ""
attr source computeTDistribution
vector 12 Aerocom.aircraft[0].dataLink[8] tDistribution:vector ETV
attr "" ""
attr source computeTDistribution
vector 13 Aerocom.aircraft[0].dataLink[14] tDistribution:vector ETV
attr "" ""
attr source computeTDistribution
vector 14 Aerocom.aircraft[0].dataLink[9] tDistribution:vector ETV
attr "" ""
attr source computeTDistribution
vector 15 Aerocom.aircraft[0].dataLink[5] tDistribution:vector ETV
attr "" ""
attr source computeTDistribution
vector 16 Aerocom.aircraft[0].dataLink[10] tDistribution:vector ETV
attr "" ""
attr source computeTDistribution
vector 17 Aerocom.aircraft[0].dataLink[15] tDistribution:vector ETV
attr "" ""
attr source computeTDistribution
vector 18 Aerocom.aircraft[0].dataLink[0] tDistribution:vector ETV
attr "" ""
attr source computeTDistribution
vector 19 Aerocom.aircraft[0].dataLink[6] tDistribution:vector ETV
attr "" ""
attr source computeTDistribution
vector 20 Aerocom.aircraft[0].dataLink[2] tDistribution:vector ETV
attr "" ""
attr source computeTDistribution
vector 21 Aerocom.aircraft[0].dataLink[4] tDistribution:vector ETV
attr "" ""
attr source computeTDistribution
0	3134 1307507 5090 171471 10.00055493052 337.683549498939 32768 0.007007007007 0.163955875332 787.4955748325 33.401153672367
1	1310641 1217083 5090 171471 10.00055493052 337.683549498939 32768 0 0.155568623954 530.29381387062 22.89586871093
2	2527724 885967 5090 171471 10.00055493052 337.683549498939 32768 0 18 53629 291013
3	3413691 983543 5090 171471 10.00055493052 337.683549498939 32768 8009 9990 293015957 2627008132785
4	4397234 1437993 5090 171471 10.00055493052 337.683549498939 32768 0.007007007007007 0.0087401673117743 257.18097783726 2.0237674284911
5	5835227 1307274 5096 171484 10.013160321094 337.737822569688 32768 3.0353e-07 0.101623170194 327.7316057356 6.5618899677167
0	7142501 250389 171474 202693 337.691329005496 399.999538461661 6140 0.007032348805 0.103148922688 120.6295628209 3.6813590673844
1	7392890 230810 171478 202693 337.719378641515 399.999538461661 6140 0 0.095033921529 73.43213064159 2.1815308738657
2	7623700 171252 171478 202693 337.719378641515 399.999538461661 6140 0 11 7218 28318
3	7794952 189644 171478 202693 337.719378641515 399.999538461661 6140 8070 9972 56029067 512320192277
4	7984596 274794 171478 202693 337.719378641515 399.999538461661 6140 0.0070196550340955 0.0086741016109046 47.196205724771 0.36352333483585
5	8259390 250205 171489 202691 337.744766056689 399.997413226397 6138 1.631766e-06 0.082606428275 62.278468117512 1.2486905822084
6	8509595 7061 5114 201197 10.042660162094 396.950901106258 170 0.018083212080763 14.135818076636 392.68902254117 1779.2090833081
7	8516656 8009 5143 201809 10.138130304376 398.200754030052 193 0.0032935512722531 9.6756159828031 391.2531643126 1413.7530258238
8	8524665 7538 5153 202683 10.181223316914 399.957265771539 182 0.052001324439503 9.9683731731739 393.97883830704 1690.8365288727
9	8532203 7728 5330 202451 10.535038900382 399.488222291296 186 0.0024357465505504 12.115931295798 391.76708556152 1591.9920794233
10	8539931 8099 5608 202632 11.139281833338 399.827524687183 191 0.017654425453776 9.2893467252023 390.53173791629 1434.1915686112
11	8548030 7760 5637 202447 11.18907411129 399.48102551583 183 0.00067955856156664 9.712468005111 397.06010461401 1725.1131368982
12	8555790 8670 5835 202241 11.584773373308 399.029087174769 204 0.010970026664274 9.4586430376244 389.17490226746 1559.9250863473
13	8564460 7408 5953 201999 11.780464712687 398.516394276136 174 0.0078378496468434 13.458258227438 389.53385407819 1679.0054387648
14	8571868 8349 6069 202582 12.039122857094 399.750409568113 196 0.0037419412504929 10.264358828883 396.36090277273 1703.1930672701
15	8580217 8618 6194 202569 12.371490477884 399.693335442153 203 0.010029685752466 11.70310396566 387.80700908885 1551.4028576387
16	8588835 7407 6546 202077 13.216196194435 398.648031764974 174 0.014997745565613 14.069244798932 391.46812582806 1947.1921995736
17	8596242 9361 6655 202183 13.444111938733 398.927238986312 220 0.00024755946413886 9.9683048082232 388.67948010602 1362.5601171908
18	8605603 8752 6815 201848 13.748275102369 398.258606508563 206 0.0013263548089788 10.984802855998 388.4839610527 1379.715496613
19	8614355 8086 7961 202646 15.992805318391 399.851347451237 190 0.0053474359161866 17.451253821867 384.6445357565 1784.4822157197
20	8622441 9411 8712 201769 17.454636705221 398.096802793529 221 0.0040176763300005 9.029738120881 384.82551018322 1226.3119808639
21	8631852 7524 8771 201832 17.603577258191 398.234370476918 177 0.00093190473095433 16.122466407035 383.59995457904 1580.7096832702

