version 2
run Nonmonitoring-exponential-521-20210224-17:49:30-27059
attr configname Nonmonitoring-exponential
attr datetime 20210224-17:49:30
attr experiment Nonmonitoring-exponential
attr inifile aerocom.ini
attr iterationvars $0=50
attr iterationvarsf 50-
attr measurement $0=50
attr network Aerocom
attr processid 27059
attr repetition 21
attr replication #21
attr resultdir results
attr runnumber 521
attr seedset 21
param **.t 2s
param **.k 50ms
param **.X 0.05s
param **.m 1s
param **.tDistribution "\"exponential\""
param **.operationMode 1
param **.s "70 byte"
param **.dimPoolMax 10000
param **.dimPoolMin 8000
param **.nDL 16
param **.nA 1
param **.DLMaxCapacity 0
param **.trasmitting false

vector 0 Aerocom.aircraft[0].dataLink[7] tDistribution:vector ETV
attr "" ""
attr source computeTDistribution
vector 1 Aerocom.aircraft[0].packetGenerator arrivalTime:vector ETV
attr "" ""
attr source computeArrivalTime
vector 2 Aerocom.aircraft[0].linkSelector waitingTime:vector ETV
attr "" ""
attr source computeWaitingTime
vector 3 Aerocom.aircraft[0].linkSelector queueLength:vector ETV
attr "" ""
attr source computeQueueLength
vector 4 Aerocom.aircraft[0].dataLink[11] actualCapacity:vector ETV
attr "" ""
attr source computeActualCapacity
vector 5 Aerocom.aircraft[0].linkSelector serviceTime:vector ETV
attr "" ""
attr source computeServiceTime
vector 6 Aerocom.aircraft[0].linkSelector responseTime:vector ETV
attr "" ""
attr source computeResponseTime
vector 7 Aerocom.aircraft[0].dataLink[14] tDistribution:vector ETV
attr "" ""
attr source computeTDistribution
vector 8 Aerocom.aircraft[0].dataLink[5] tDistribution:vector ETV
attr "" ""
attr source computeTDistribution
vector 9 Aerocom.aircraft[0].dataLink[11] tDistribution:vector ETV
attr "" ""
attr source computeTDistribution
vector 10 Aerocom.aircraft[0].dataLink[0] tDistribution:vector ETV
attr "" ""
attr source computeTDistribution
vector 11 Aerocom.aircraft[0].dataLink[1] tDistribution:vector ETV
attr "" ""
attr source computeTDistribution
vector 12 Aerocom.aircraft[0].dataLink[3] tDistribution:vector ETV
attr "" ""
attr source computeTDistribution
vector 13 Aerocom.aircraft[0].dataLink[4] tDistribution:vector ETV
attr "" ""
attr source computeTDistribution
vector 14 Aerocom.aircraft[0].dataLink[10] tDistribution:vector ETV
attr "" ""
attr source computeTDistribution
vector 15 Aerocom.aircraft[0].dataLink[6] tDistribution:vector ETV
attr "" ""
attr source computeTDistribution
vector 16 Aerocom.aircraft[0].dataLink[9] tDistribution:vector ETV
attr "" ""
attr source computeTDistribution
vector 17 Aerocom.aircraft[0].dataLink[13] tDistribution:vector ETV
attr "" ""
attr source computeTDistribution
vector 18 Aerocom.aircraft[0].dataLink[15] tDistribution:vector ETV
attr "" ""
attr source computeTDistribution
vector 19 Aerocom.aircraft[0].dataLink[12] tDistribution:vector ETV
attr "" ""
attr source computeTDistribution
vector 20 Aerocom.aircraft[0].dataLink[2] tDistribution:vector ETV
attr "" ""
attr source computeTDistribution
vector 21 Aerocom.aircraft[0].dataLink[8] tDistribution:vector ETV
attr "" ""
attr source computeTDistribution
0	883	10.147421702745	8.1112527795707
0	1914	18.258674482316	0.89105792014561
0	2016	19.149732402462	0.52928392548294
0	2071	19.679016327945	1.920506284799
0	2257	21.599522612744	2.4224576028743
0	2506	24.021980215618	0.58618538333911
0	2555	24.608165598957	0.67186063122169
0	2609	25.280026230179	3.5938672927527
0	3020	28.873893522932	2.551873799945
0	3275	31.425767322877	0.43012945970783
0	3318	31.855896782585	0.26358965391842
0	3329	32.119486436503	3.2197596547961
0	3635	35.339246091299	0.39399341073741
0	3695	35.733239502036	0.73243482333341
0	3792	36.465674325369	3.1693107822843
0	4163	39.634985107653	1.3233297704195
0	4256	40.958314878072	0.66691821988479
0	4305	41.625233097957	1.541761201806
0	4470	43.166994299763	2.2580544029855
0	4677	45.425048702748	0.82865685157184
0	4768	46.25370555432	1.3169691324523
0	4899	47.570674686772	3.7366834437195
0	5267	51.307358130492	3.0111736336551
0	5554	54.318531764147	1.8024219400594
0	5722	56.120953704206	2.5579923435613
0	6011	58.678946047767	0.20591362453342
0	6029	58.8848596723	0.34375478945008
0	6054	59.22861446175	1.76076700268
0	6285	60.98938146443	3.1233598738336
0	6626	64.112741338264	2.8551713030844
0	6951	66.967912641348	0.76537065231993
0	7017	67.733283293668	1.0830267406959
0	7141	68.816310034364	1.8017530887558
0	7309	70.61806312312	3.3998817253764
0	7669	74.017944848496	3.7602197687685
0	7966	77.778164617265	0.22866887434523
0	7995	78.00683349161	1.8195234913303
0	8192	79.82635698294	5.9694445296594
0	8829	85.795801512599	3.4291430955922
0	9155	89.224944608191	0.73055621423287
0	9207	89.955500822424	0.43446287190461
0	9269	90.389963694329	3.1708656968809
0	9634	93.56082939121	3.131419695276
0	9953	96.692249086486	0.80517055540959
0	10011	97.497419641896	2.6656728900162
0	10348	100.163092531912	1.2363991614127
0	10528	101.399491693325	6.7668776303088
0	11319	108.166369323634	0.94300974740162
0	11429	109.109379071036	2.0725822354684
0	11646	111.181961306504	0.29028214965572
0	11675	111.47224345616	0.86876317887116
0	11765	112.341006635031	3.0122154815512
0	12131	115.353222116582	4.8933991555616
0	12598	120.246621272144	0.99668727567474
0	12708	121.243308547819	0.23004137284495
0	12746	121.473349920664	0.34682110312587
0	12787	121.82017102379	3.9853428701123
0	13255	125.805513893902	0.9563250417213
0	13375	126.761838935623	1.5522370791952
0	13545	128.314076014818	3.7552424720203
0	13954	132.069318486838	1.9702716955879
0	14195	134.039590182426	1.1405910209515
0	14306	135.180181203378	1.1871197770842
0	14437	136.367300980462	0.33142968180431
0	14470	136.698730662266	1.8536479704764
0	14715	138.552378632742	0.71272363770988
0	14761	139.265102270452	0.039347095523897
0	14770	139.304449365976	2.4441122479304
0	15043	141.748561613906	0.34965996538016
0	15073	142.098221579286	2.5890518048574
0	15322	144.687273384143	0.93702957108925
0	15442	145.624302955232	3.7617374691343
0	15775	149.386040424366	1.0332366621862
0	15921	150.419277086552	2.6328296019226
0	16201	153.052106688475	2.6955288741713
0	16489	155.747635562646	2.0174480493517
0	16662	157.765083611998	0.75852921919225
0	16733	158.52361283119	2.4227548134382
0	17004	160.946367644628	0.31426221826999
0	17034	161.260629862898	6.7169195162005
0	17739	167.977549379098	3.4578742128988
0	18179	171.435423591997	1.4767652644487
0	18297	172.912188856446	0.10808349924952
0	18303	173.020272355696	1.1234597685833
0	18436	174.143732124279	4.0425032281885
0	18866	178.186235352468	1.7925584162567
0	19068	179.978793768725	1.0184668459389
0	19163	180.997260614664	0.11724753679603
0	19169	181.11450815146	2.5865118585341
0	19441	183.701020009994	0.63676863095781
0	19533	184.337788640952	0.26487252550243
0	19557	184.602661166454	1.1423411916981
0	19668	185.745002358152	3.4930094094304
0	19991	189.238011767582	1.3118898397615
0	20180	190.549901607343	2.0340469967799
0	20351	192.583948604123	2.8355484457343
0	20625	195.419497049857	0.26680972472757
0	20666	195.686306774585	3.822145950105
0	21036	199.50845272469	6.6338445714146
0	21802	206.142297296105	4.4896499991135
0	22295	210.631947295218	0.16975037046395
0	22315	210.801697665682	0.88053611961836
0	22399	211.6822337853	1.9733209117855
0	22679	213.655554697085	1.332008134542
0	22847	214.987562831627	0.3810473455754
0	22883	215.368610177202	1.6016274613886
0	23049	216.970237638591	6.2780294454893
0	23729	223.24826708408	3.2244632042573
0	24073	226.472730288337	0.087912441277964
0	24094	226.560642729615	1.4619885064551
0	24236	228.02263123607	0.64579665865902
0	24305	228.668427894729	0.1581162265508
0	24338	228.82654412128	0.058549099456702
0	24344	228.885093220737	1.2682504604933
0	24513	230.15334368123	0.76110862765296
0	24633	230.914452308883	2.9055747373058
0	24978	233.820027046189	0.51339534684374
0	25022	234.333422393033	0.5503080410342
0	25099	234.883730434067	1.6681140457503
0	25327	236.551844479817	0.28608749832217
0	25339	236.837931978139	5.2915961287869
0	25896	242.129528106926	0.13287497991163
0	25908	242.262403086838	0.94687956985565
0	26003	243.209282656694	0.30329128967777
0	26032	243.512573946372	2.1855013156182
0	26193	245.69807526199	0.71219769031675
0	26301	246.410272952307	1.0825139769652
0	26377	247.492786929272	4.0346228786673
0	26855	251.527409807939	0.065804307781885
0	26857	251.593214115721	0.91586997520327
0	26955	252.509084090924	0.37466460763086
0	26984	252.883748698555	0.93703135880096
0	27068	253.820780057356	1.492316198185
0	27255	255.313096255541	0.24649282081857
0	27282	255.55958907636	4.8782152333681
0	27743	260.437804309728	2.6544843154491
0	28003	263.092288625177	2.5997562592722
0	28300	265.692044884449	0.062833145887047
0	28321	265.754878030336	2.4062009887158
0	28557	268.161079019052	2.3662763114763
0	28813	270.527355330528	1.1656025060723
0	28967	271.6929578366	5.0023191987436
0	29537	276.695277035344	0.36415894313242
0	29568	277.059435978476	5.5426893142579
0	30119	282.602125292734	0.0089646092711935
0	30120	282.611089902005	2.287634245717
0	30377	284.898724147722	2.1923080514275
0	30652	287.091032199149	2.2307731903001
0	30896	289.321805389449	1.1443269784395
0	31060	290.466132367889	2.0807170617045
0	31306	292.546849429593	6.3045602715378
0	31924	298.851409701131	2.5930978229725
0	32215	301.444507524104	0.69772777455821
0	32279	302.142235298662	2.2626353005411
0	32493	304.404870599203	2.5915759380297
0	32773	306.996446537233	0.57811350242997
0	32831	307.574560039663	0.091555335100146
0	32837	307.666115374763	0.70243906097947
0	32936	308.368554435742	1.5745850896845
0	33114	309.943139525427	0.1433122372421
0	33126	310.086451762669	3.8844802482982
0	33574	313.970932010967	0.1133016132723
0	33581	314.084233624239	1.8940760925595
0	33765	315.978309716799	2.2341168652491
0	33966	318.212426582048	3.6117511094177
0	34362	321.824177691466	0.20735055086922
0	34383	322.031528242335	0.9930577750755
0	34495	323.02458601741	5.1869513886714
0	35111	328.211537406081	2.0052182485632
0	35339	330.216755654644	1.5861548836859
0	35536	331.80291053833	4.0672082185693
0	35957	335.870118756899	1.3503756856821
0	36076	337.220494442581	5.3753057923948
0	36610	342.595800234976	1.9683107722637
0	36800	344.56411100724	0.69426148677145
0	36860	345.258372494011	1.4130378286972
0	37021	346.671410322708	0.69692635440377
0	37138	347.368336677112	7.956324963669
0	38036	355.324661640781	5.8953256452352
0	38653	361.219987286016	1.1942993109197
0	38770	362.414286596936	1.4198694682544
0	38969	363.83415606519	1.3139612284931
0	39094	365.148117293683	1.7720545064461
0	39342	366.920171800129	0.81614800788901
0	39457	367.736319808018	1.4207503651784
0	39593	369.157070173196	0.88165774135679
0	39664	370.038727914553	3.1579023589916
0	40075	373.196630273545	0.48660922862462
0	40107	373.68323950217	0.01696209319852
0	40113	373.700201595369	0.57853417706125
0	40181	374.27873577243	0.70784315295929
0	40238	374.986578925389	15.89174262535
0	41951	390.878321550739	3.4644807078835
0	42299	394.342802258622	1.9125860157305
0	42520	396.255388274353	4.7577097173078
1	884	10.149198916185	0.080443487133
1	889	10.229642403318	0.025446662708
1	894	10.255089066026	0.008765650449
1	899	10.263854716475	0.01048558105
1	904	10.274340297525	0.067382505286
1	910	10.341722802811	0.028195933936
1	915	10.369918736747	0.066993782063
1	920	10.43691251881	0.021217955692
1	925	10.458130474502	0.005470001122
1	927	10.463600475624	0.010568521224
1	935	10.474168996848	0.008357169959
1	940	10.482526166807	0.017397885788
1	945	10.499924052595	0.000969403784
1	947	10.500893456379	0.047368344176
1	956	10.548261800555	0.032967705067
1	961	10.581229505622	0.046768502689
1	966	10.627998008311	0.046910331612
1	971	10.674908339923	0.02859878287
1	976	10.703507122793	0.058363742835
1	981	10.761870865628	0.01072482111
1	986	10.772595686738	0.00498893193
1	988	10.777584618668	0.105872168655
1	996	10.883456787323	0.124906675298
1	1001	11.008363462621	0.017081683027
1	1006	11.025445145648	0.001034044759
1	1008	11.026479190407	0.085345935937
1	1016	11.111825126344	0.040011545113
1	1022	11.151836671457	0.107242626838
1	1028	11.259079298295	0.018932946573
1	1033	11.278012244868	0.011831593317
1	1038	11.289843838185	0.029578075665
1	1043	11.31942191385	0.110383420498
1	1048	11.429805334348	0.040104937446
1	1053	11.469910271794	0.037023995852
1	1058	11.506934267646	0.158760774498
1	1066	11.665695042144	0.002267704186
1	1068	11.66796274633	0.003228889696
1	1070	11.671191636026	0.041578241984
1	1081	11.71276987801	0.006700645179
1	1083	11.719470523189	0.074389428163
1	1091	11.793859951352	0.027833025651
1	1098	11.821692977003	0.02675840369
1	1104	11.848451380693	0.00685814827
1	1106	11.855309528963	0.008362433607
1	1114	11.86367196257	0.013631596531
1	1119	11.877303559101	0.003067828972
1	1121	11.880371388073	0.026035392204
1	1130	11.906406780277	0.042469286139
1	1135	11.948876066416	0.013323154939
1	1140	11.962199221355	0.039715907337
1	1145	12.001915128692	0.025286947701
1	1151	12.027202076393	0.099186770504
1	1156	12.126388846897	0.070145704684
1	1161	12.196534551581	0.048713744961
1	1166	12.245248296542	0.058820870064
1	1172	12.304069166606	0.02426362664
1	1177	12.328332793246	0.026308643775
1	1184	12.354641437021	0.004790733878
1	1186	12.359432170899	0.018691800625
1	1194	12.378123971524	0.04910353417
1	1199	12.427227505694	0.129648935607
1	1204	12.556876441301	0.052293102695
1	1209	12.609169543996	0.055084804703
1	1214	12.664254348699	0.035970957014
1	1219	12.700225305713	0.034887510383
1	1224	12.735112816096	0.046985843702
1	1229	12.782098659798	0.020024688992
1	1235	12.80212334879	0.017788707678
1	1240	12.819912056468	0.023561956274
1	1245	12.843474012742	0.012600837604
1	1250	12.856074850346	0.008056118379
1	1255	12.864130968725	0.148186822465
1	1262	13.01231779119	0.087886292687
1	1267	13.100204083877	0.058983093662
1	1273	13.159187177539	0.041290824082
1	1278	13.200478001621	0.031037439141
1	1284	13.231515440762	0.062374122586
1	1289	13.293889563348	0.009040861925
1	1294	13.302930425273	0.056058594469
1	1299	13.358989019742	0.010915872314
1	1304	13.369904892056	0.004523695171
1	1306	13.374428587227	0.007557128233
1	1311	13.38198571546	0.053066569029
1	1319	13.435052284489	0.028824146544
1	1324	13.463876431033	0.079680549681
1	1331	13.543556980714	0.052446794698
1	1336	13.596003775412	0.194284649949
1	1345	13.790288425361	0.214994377306
1	1351	14.005282802667	0.194945999888
1	1359	14.200228802555	0.000898318913
1	1361	14.201127121468	0.052354323036
1	1371	14.253481444504	0.068721419705
1	1376	14.322202864209	0.021627641177
1	1381	14.343830505386	0.04167067488
1	1386	14.385501180266	0.049031544863
1	1391	14.434532725129	0.024049623449
1	1396	14.458582348578	0.103427247507
1	1402	14.562009596085	0.029454974497
1	1407	14.591464570582	0.03569743307
1	1412	14.627162003652	0.041964515267
1	1419	14.669126518919	0.101055571034
1	1424	14.770182089953	0.133319599567
1	1432	14.90350168952	0.012749540674
1	1437	14.916251230194	0.032859093064
1	1443	14.949110323258	0.006962497482
1	1445	14.95607282074	0.001558996159
1	1450	14.957631816899	0.00449031795
1	1452	14.962122134849	0.008909915557
1	1457	14.971032050406	0.05140995773
1	1469	15.022442008136	0.003257331309
1	1471	15.025699339445	0.132581736612
1	1479	15.158281076057	0.01259470249
1	1484	15.170875778547	0.017768596586
1	1489	15.188644375133	0.024170005133
1	1495	15.212814380266	0.004925995115
1	1497	15.217740375381	0.212626266872
1	1507	15.430366642253	0.053982125855
1	1512	15.484348768108	0.016211006747
1	1517	15.500559774855	0.015118734458
1	1522	15.515678509313	0.054642423093
1	1527	15.570320932406	0.01896553836
1	1532	15.589286470766	0.004973326063
1	1534	15.594259796829	0.104473350706
1	1543	15.698733147535	0.001235808807
1	1545	15.699968956342	0.002824380452
1	1547	15.702793336794	0.02862773987
1	1558	15.731421076664	0.017088844504
1	1563	15.748509921168	0.036385120161
1	1568	15.784895041329	0.118461225447
1	1573	15.903356266776	0.005399116734
1	1576	15.90875538351	0.039884030504
1	1584	15.948639414014	0.020743154453
1	1590	15.969382568467	0.017825810268
1	1595	15.987208378735	0.034434059024
1	1600	16.021642437759	0.097087842104
1	1605	16.118730279863	0.014841165468
1	1610	16.133571445331	0.017109539173
1	1615	16.150680984504	0.163932304458
1	1620	16.314613288962	0.071794913007
1	1625	16.386408201969	0.064243349366
1	1631	16.450651551335	0.047610441492
1	1637	16.498261992827	0.00186376801
1	1639	16.500125760837	0.052206515695
1	1647	16.552332276532	0.01367586175
1	1652	16.566008138282	0.096219390802
1	1659	16.662227529084	0.026794636366
1	1664	16.68902216545	0.008997748921
1	1669	16.698019914371	0.000715673127
1	1671	16.698735587498	0.018188306944
1	1679	16.716923894442	0.037494496695
1	1684	16.754418391137	0.003960145162
1	1686	16.758378536299	0.051125930965
1	1695	16.809504467264	0.032752225925
1	1701	16.842256693189	0.045340648192
1	1708	16.887597341381	0.004448747473
1	1710	16.892046088854	0.041098996569
1	1719	16.933145085423	0.044742447392
1	1724	16.977887532815	0.060407595468
1	1729	17.038295128283	0.008085517438
1	1734	17.046380645721	0.002999577517
1	1736	17.049380223238	0.003936364755
1	1738	17.053316587993	0.051376698402
1	1749	17.104693286395	0.056699353179
1	1754	17.161392639574	0.096951353328
1	1760	17.258343992902	0.02570526756
1	1765	17.284049260462	0.100348254458
1	1770	17.38439751492	0.001346916049
1	1772	17.385744430969	0.042365872214
1	1780	17.428110303183	0.025217449435
1	1785	17.453327752618	0.040826358056
1	1790	17.494154110674	0.021493360916
1	1795	17.51564747159	0.000244634314
1	1797	17.515892105904	0.018460524765
1	1805	17.534352630669	0.004368479633
1	1807	17.538721110302	0.006847944632
1	1812	17.545569054934	0.122475067186
1	1820	17.66804412212	0.04079313065
1	1825	17.70883725277	0.002894506793
1	1827	17.711731759563	0.011788768184
1	1832	17.723520527747	0.051368422955
1	1840	17.774888950702	0.001824480077
1	1842	17.776713430779	0.014397727359
1	1850	17.791111158138	0.040695293613
1	1858	17.831806451751	0.089965870109
1	1864	17.92177232186	0.000598823419
1	1866	17.922371145279	0.021500332037
1	1874	17.943871477316	0.05919347503
1	1880	18.003064952346	0.0395874508
1	1887	18.042652403146	0.048073538664
1	1892	18.09072594181	0.004788615947
1	1894	18.095514557757	0.025383123373
1	1902	18.12089768113	0.027734229191
1	1907	18.148631910321	0.103526475163
1	1912	18.252158385484	0.092353791016
1	1918	18.3445121765	0.062923317914
1	1923	18.407435494414	0.039300372146
1	1928	18.44673586656	0.04887894132
1	1934	18.49561480788	0.017131057156
1	1939	18.512745865036	0.055267346892
1	1944	18.568013211928	0.033567324127
1	1950	18.601580536055	0.031156593979
1	1955	18.632737130034	9.2435675e-05
1	1957	18.632829565709	0.058491014249
1	1966	18.691320579958	0.101525801244
1	1972	18.792846381202	0.010413243248
1	1977	18.80325962445	0.024679230337
1	1982	18.827938854787	0.020994148419
1	1988	18.848933003206	0.149422620933
1	1994	18.998355624139	0.05793901264
1	2000	19.056294636779	0.047750620905
1	2005	19.104045257684	0.007157342072
1	2007	19.111202599756	0.138930083056
1	2019	19.250132682812	0.039934978618
1	2025	19.29006766143	0.05299567849
1	2030	19.34306333992	0.15061322549
1	2035	19.49367656541	0.038014162342
1	2040	19.531690727752	0.007694060995
1	2045	19.539384788747	0.053510811219
1	2051	19.592895599966	0.022142948085
1	2056	19.615038548051	0.039067409335
1	2061	19.654105957386	0.0143310183
1	2066	19.668436975686	0.254120996903
1	2078	19.922557972589	0.001309820221
1	2080	19.92386779281	0.001243178423
1	2082	19.925110971233	0.047813442922
1	2093	19.972924414155	0.092542080421
1	2098	20.065466494576	0.051168538523
1	2103	20.116635033099	0.071393598591
1	2108	20.18802863169	0.046392557703
1	2113	20.234421189393	0.026807000789
1	2118	20.261228190182	0.022148563619
1	2123	20.283376753801	0.047654963303
1	2128	20.331031717104	0.186133403415
1	2134	20.517165120519	0.048392191687
1	2139	20.565557312206	0.008922696969
1	2144	20.574480009175	0.057314655837
1	2149	20.631794665012	0.100913625126
1	2154	20.732708290138	0.030557847088
1	2159	20.763266137226	0.007973113614
1	2164	20.77123925084	0.030864364594
1	2169	20.802103615434	0.010744454885
1	2174	20.812848070319	0.163740533773
1	2183	20.976588604092	0.0365040539
1	2188	21.013092657992	0.243363875368
1	2194	21.25645653336	0.051597099395
1	2200	21.308053632755	0.001749031217
1	2202	21.309802663972	0.015826693125
1	2210	21.325629357097	0.008290534978
1	2216	21.333919892075	0.053995664809
1	2221	21.387915556884	0.031595496086
1	2226	21.41951105297	0.053088576695
1	2232	21.472599629665	0.036144714936
1	2237	21.508744344601	0.036646789177
1	2242	21.545391133778	0.012997458025
1	2247	21.558388591803	0.004548352967
1	2249	21.56293694477	0.065098847293
1	2258	21.628035792063	0.006572972783
1	2260	21.634608764846	0.064055191412
1	2268	21.698663956258	0.055269098447
1	2275	21.753933054705	0.050585076661
1	2281	21.804518131366	0.038594048901
1	2286	21.843112180267	0.006392575651
1	2288	21.849504755918	0.027815461436
1	2296	21.877320217354	0.051892809689
1	2302	21.929213027043	0.068867859913
1	2307	21.998080886956	0.039966618969
1	2312	22.038047505925	0.0136267965
1	2317	22.051674302425	0.035086130267
1	2322	22.086760432692	0.025535629711
1	2327	22.112296062403	0.066876165225
1	2332	22.179172227628	0.023393561315
1	2337	22.202565788943	0.003238814636
1	2339	22.205804603579	0.054831241165
1	2348	22.260635844744	0.07620335669
1	2353	22.336839201434	0.007613288953
1	2358	22.344452490387	0.076517820739
1	2364	22.420970311126	0.181382633156
1	2371	22.602352944282	0.046352802793
1	2376	22.648705747075	0.004754654413
1	2378	22.653460401488	0.105269383478
1	2386	22.758729784966	0.059703020998
1	2391	22.818432805964	0.075619250441
1	2396	22.894052056405	0.091843663679
1	2403	22.985895720084	0.131131796989
1	2410	23.117027517073	0.015650289788
1	2415	23.132677806861	0.060531572349
1	2420	23.19320937921	0.06987165561
1	2426	23.26308103482	0.000416674793
1	2428	23.263497709613	0.032773449654
1	2436	23.296271159267	0.008002574776
1	2441	23.304273734043	0.180229540883
1	2446	23.484503274926	0.042063749356
1	2452	23.526567024282	0.103226428935
1	2458	23.629793453217	0.09933057403
1	2464	23.729124027247	0.039487499135
1	2470	23.768611526382	0.110445667794
1	2476	23.879057194176	0.029642250154
1	2481	23.90869944433	0.002735270273
1	2483	23.911434714603	0.085676327714
1	2491	23.997111042317	0.004213273529
1	2493	24.001324315846	0.011668300549
1	2501	24.012992616395	0.037420011373
1	2507	24.050412627768	0.039922535749
1	2513	24.090335163517	0.045380074069
1	2519	24.135715237586	0.144808405999
1	2524	24.280523643585	0.014094205563
1	2529	24.294617849148	0.008110562798
1	2534	24.302728411946	0.110635137551
1	2539	24.413363549497	0.085364092171
1	2545	24.498727641668	0.054856665403
1	2550	24.553584307071	0.080772725714
1	2556	24.634357032785	0.026587294352
1	2561	24.660944327137	0.061745771938
1	2567	24.722690099075	0.098625844845
1	2572	24.82131594392	0.014912766547
1	2577	24.836228710467	0.16727445237
1	2584	25.003503162837	0.007211534125
1	2586	25.010714696962	0.039929382989
1	2594	25.050644079951	0.091406489977
1	2599	25.142050569928	0.0237994393
1	2604	25.165850009228	0.353481633935
1	2612	25.519331643163	0.008636147208
1	2617	25.527967790371	0.013975109777
1	2622	25.541942900148	0.076116764884
1	2628	25.618059665032	0.022994192439
1	2634	25.641053857471	0.022870223147
1	2639	25.663924080618	0.010128141267
1	2644	25.674052221885	0.051312695583
1	2649	25.725364917468	0.055574518728
1	2656	25.780939436196	0.011083724188
1	2661	25.792023160384	0.085854244197
1	2666	25.877877404581	0.116465623742
1	2671	25.994343028323	0.058687595784
1	2676	26.053030624107	0.00061805952
1	2678	26.053648683627	0.000701920762
1	2680	26.054350604389	0.139461582364
1	2694	26.193812186753	0.036352483043
1	2699	26.230164669796	0.012772975442
1	2704	26.242937645238	0.119945937694
1	2710	26.362883582932	0.020554675991
1	2715	26.383438258923	0.024157345018
1	2721	26.407595603941	0.006431572054
1	2723	26.414027175995	0.016670451994
1	2731	26.430697627989	0.005281227463
1	2733	26.435978855452	1.907638e-05
1	2735	26.435997931832	0.037101381079
1	2747	26.473099312911	0.070019622359
1	2753	26.54311893527	0.092006980327
1	2759	26.635125915597	0.056809657718
1	2764	26.691935573315	0.003664815509
1	2766	26.695600388824	0.046756822789
1	2774	26.742357211613	0.002623578365
1	2776	26.744980789978	0.044164805906
1	2785	26.789145595884	0.013168151722
1	2790	26.802313747606	0.028173226245
1	2795	26.830486973851	0.009783381704
1	2800	26.840270355555	0.01303100638
1	2805	26.853301361935	0.003614484739
1	2807	26.856915846674	0.007222198055
1	2812	26.864138044729	0.053289159606
1	2820	26.917427204335	0.084916423152
1	2826	27.002343627487	0.05000974778
1	2831	27.052353375267	0.034508216705
1	2836	27.086861591972	0.056083321352
1	2841	27.142944913324	0.070069441149
1	2847	27.213014354473	0.05036153505
1	2852	27.263375889523	0.000670615002
1	2854	27.264046504525	0.052594260562
1	2862	27.316640765087	0.066010037661
1	2868	27.382650802748	0.00819454944
1	2870	27.390845352188	0.008852917886
1	2878	27.399698270074	0.015728409561
1	2883	27.415426679635	0.089299314253
1	2889	27.504725993888	0.234982980411
1	2896	27.739708974299	0.164164692193
1	2902	27.903873666492	0.114057046119
1	2907	28.017930712611	0.028214722423
1	2912	28.046145435034	0.005987211062
1	2914	28.052132646096	0.068712476902
1	2925	28.120845122998	0.022182291264
1	2931	28.143027414262	0.12636200671
1	2937	28.269389420972	0.008669782355
1	2942	28.278059203327	0.010494597475
1	2947	28.288553800802	0.069885313242
1	2953	28.358439114044	0.033117037566
1	2958	28.39155615161	0.027548832151
1	2963	28.419104983761	0.00757718793
1	2968	28.426682171691	0.142184033388
1	2974	28.568866205079	0.06678778888
1	2980	28.635653993959	0.022634990752
1	2985	28.658288984711	0.007010911876
1	2987	28.665299896587	0.016712617331
1	2996	28.682012513918	0.043645923984
1	3001	28.725658437902	0.005863896737
1	3003	28.731522334639	0.038254841794
1	3011	28.769777176433	0.109957357756
1	3021	28.879734534189	0.076496353817
1	3027	28.956230888006	0.03217785495
1	3032	28.988408742956	0.02343168349
1	3037	29.011840426446	0.034008647313
1	3042	29.045849073759	0.02613177845
1	3048	29.071980852209	0.059637856554
1	3053	29.131618708763	0.054538894856
1	3059	29.186157603619	0.012756557976
1	3064	29.198914161595	0.008999440642
1	3070	29.207913602237	0.029345804549
1	3075	29.237259406786	0.066685974328
1	3080	29.303945381114	0.026045173422
1	3085	29.329990554536	0.116890570959
1	3090	29.446881125495	0.070279076621
1	3097	29.517160202116	0.014860404903
1	3102	29.532020607019	0.065883426326
1	3107	29.597904033345	0.061574946949
1	3112	29.659478980294	0.051720044669
1	3117	29.711199024963	0.03762238424
1	3122	29.748821409203	0.020707085189
1	3127	29.769528494392	0.005515415405
1	3129	29.775043909797	0.026013265096
1	3137	29.801057174893	0.065757878339
1	3142	29.866815053232	0.001152949111
1	3144	29.867968002343	0.214629715543
1	3153	30.082597717886	0.122506866905
1	3158	30.205104584791	0.013036887971
1	3163	30.218141472762	0.011309008253
1	3168	30.229450481015	0.012065247927
1	3173	30.241515728942	0.020483888633
1	3179	30.261999617575	0.058087499798
1	3185	30.320087117373	0.185849933664
1	3191	30.505937051037	0.016986237728
1	3196	30.522923288765	0.054625857548
1	3202	30.577549146313	0.032665140012
1	3208	30.610214286325	0.336491755732
1	3216	30.946706042057	0.109633253721
1	3222	31.056339295778	0.061548184133
1	3227	31.117887479911	0.068691597171
1	3233	31.186579077082	0.017702587413
1	3238	31.204281664495	0.107618897548
1	3245	31.311900562043	0.011130601494
1	3250	31.323031163537	0.002802869515
1	3252	31.325834033052	0.027561974532
1	3260	31.353396007584	0.01089298701
1	3265	31.364288994594	0.004138387294
1	3267	31.368427381888	0.096309815269
1	3276	31.464737197157	0.037758905894
1	3281	31.502496103051	0.158184970437
1	3287	31.660681073488	0.067255195917
1	3292	31.727936269405	0.070730622917
1	3299	31.798666892322	0.007012107293
1	3301	31.805678999615	0.037879924301
1	3310	31.843558923916	0.002462398877
1	3312	31.846021322793	0.023904377135
1	3322	31.869925699928	0.2733849548
1	3330	32.143310654728	0.03836753091
1	3335	32.181678185638	0.046293409799
1	3340	32.227971595437	0.011405300103
1	3345	32.23937689554	0.013890439349
1	3350	32.253267334889	0.00527241784
1	3352	32.258539752729	0.031713971626
1	3360	32.290253724355	0.196558304951
1	3369	32.486812029306	0.031398164034
1	3374	32.51821019334	0.006172412802
1	3376	32.524382606142	0.018642503591
1	3384	32.543025109733	0.064060911264
1	3390	32.607086020997	0.041017009389
1	3395	32.648103030386	0.075017882486
1	3401	32.723120912872	0.043868358358
1	3407	32.76698927123	0.231975586022
1	3412	32.998964857252	0.05483216658
1	3418	33.053797023832	0.009291119925
1	3423	33.063088143757	0.097127400751
1	3430	33.160215544508	0.020274567569
1	3436	33.180490112077	0.26150893407
1	3443	33.441999046147	0.060631940877
1	3448	33.502630987024	0.015940167241
1	3453	33.518571154265	0.178624907631
1	3458	33.697196061896	0.006446879519
1	3461	33.703642941415	0.024111370782
1	3469	33.727754312197	0.029210670326
1	3474	33.756964982523	0.058695985117
1	3479	33.81566096764	0.035688138332
1	3484	33.851349105972	0.02752050172
1	3489	33.878869607692	0.073280163497
1	3494	33.952149771189	0.015065743061
1	3499	33.96721551425	0.083115253938
1	3505	34.050330768188	0.007085267405
1	3507	34.057416035593	0.035999955649
1	3515	34.093415991242	0.005265844976
1	3517	34.098681836218	0.088786161247
1	3525	34.187467997465	0.084270253912
1	3530	34.271738251377	0.046190828442
1	3535	34.317929079819	0.058555288545
1	3540	34.376484368364	0.063047202014
1	3545	34.439531570378	0.117882313773
1	3551	34.557413884151	0.076897499469
1	3556	34.63431138362	0.01437349793
1	3561	34.64868488155	0.190646523141
1	3568	34.839331404691	0.103218335906
1	3573	34.942549740597	0.040189841921
1	3578	34.982739582518	0.045847931566
1	3584	35.028587514084	0.041117428982
1	3589	35.069704943066	0.034323374653
1	3594	35.104028317719	0.01050136272
1	3599	35.114529680439	0.02784157661
1	3604	35.142371257049	0.032426466781
1	3609	35.17479772383	0.077830564972
1	3614	35.252628288802	0.016985062169
1	3619	35.269613350971	0.016435526866
1	3625	35.286048877837	0.042260355619
1	3630	35.328309233456	0.033184978937
1	3636	35.361494212393	0.046970887313
1	3641	35.408465099706	0.080519581592
1	3646	35.488984681298	0.035017696075
1	3653	35.524002377373	0.006067950289
1	3656	35.530070327662	0.02070061125
1	3664	35.550770938912	0.002681853398
1	3666	35.55345279231	0.093943936975
1	3675	35.647396729285	0.033909914765
1	3680	35.68130664405	0.013029404137
1	3685	35.694336048187	0.020908300549
1	3690	35.715244348736	0.047737130272
1	3696	35.762981479008	0.015681878696
1	3701	35.778663357704	0.009057526437
1	3706	35.787720884141	0.014753742832
1	3712	35.802474626973	0.099130631659
1	3717	35.901605258632	0.085349933928
1	3724	35.98695519256	0.030403585265
1	3729	36.017358777825	0.030356734348
1	3734	36.047715512173	0.021571033072
1	3739	36.069286545245	0.045785407356
1	3744	36.115071952601	0.090093856311
1	3749	36.205165808912	0.013235781018
1	3754	36.21840158993	0.033533575033
1	3760	36.251935164963	0.040016410444
1	3766	36.291951575407	0.1418562821
1	3773	36.433807857507	0.002706780945
1	3775	36.436514638452	0.00176964139
1	3777	36.438284279842	0.006472834962
1	3782	36.444757114804	0.01672071723
1	3790	36.461477832034	0.098135028686
1	3800	36.55961286072	0.049896134551
1	3805	36.609508995271	0.052344137399
1	3810	36.66185313267	0.024283178204
1	3815	36.686136310874	0.047147835673
1	3821	36.733284146547	0.023945964319
1	3826	36.757230110866	0.047736153891
1	3831	36.804966264757	0.003696413229
1	3833	36.808662677986	0.00829995253
1	3838	36.816962630516	0.076630961356
1	3846	36.893593591872	0.076686996269
1	3851	36.970280588141	0.044611366179
1	3856	37.01489195432	0.005703210738
1	3858	37.020595165058	0.006832781445
1	3863	37.027427946503	0.002615669561
1	3865	37.030043616064	0.063540855717
1	3876	37.093584471781	0.029852036355
1	3881	37.123436508136	0.000677270893
1	3883	37.124113779029	0.053078014303
1	3891	37.177191793332	0.034477091877
1	3897	37.211668885209	0.043839606995
1	3902	37.255508492204	0.013459283784
1	3908	37.268967775988	0.01066828656
1	3913	37.279636062548	0.061786173568
1	3918	37.341422236116	0.041824354506
1	3923	37.383246590622	0.044098993612
1	3928	37.427345584234	0.098878488646
1	3934	37.52622407288	0.002657829706
1	3936	37.528881902586	0.009350738372
1	3941	37.538232640958	0.007817989246
1	3946	37.546050630204	0.04426276944
1	3954	37.590313399644	0.077313303856
1	3961	37.6676267035	0.021841409269
1	3966	37.689468112769	0.051850354213
1	3971	37.741318466982	7.5829842e-05
1	3973	37.741394296824	0.05665884713
1	3981	37.798053143954	0.018125823027
1	3986	37.816178966981	0.021221184997
1	3991	37.837400151978	0.079727808687
1	3996	37.917127960665	0.026270705633
1	4001	37.943398666298	0.019739922999
1	4006	37.963138589297	0.07916597322
1	4011	38.042304562517	0.03312945972
1	4016	38.075434022237	0.004766373505
1	4018	38.080200395742	0.096885038959
1	4026	38.177085434701	0.024511175682
1	4031	38.201596610383	0.107553371447
1	4036	38.30914998183	0.075177330343
1	4042	38.384327312173	0.021686260109
1	4047	38.406013572282	0.023016895923
1	4052	38.429030468205	0.143218693726
1	4057	38.572249161931	0.088965681128
1	4063	38.661214843059	0.038731512575
1	4068	38.699946355634	0.022428202705
1	4073	38.722374558339	0.093667333981
1	4079	38.81604189232	0.084620943706
1	4084	38.900662836026	0.010613409754
1	4089	38.91127624578	0.025296850165
1	4094	38.936573095945	0.048663990361
1	4099	38.985237086306	0.155207327101
1	4105	39.140444413407	0.105432861158
1	4111	39.245877274565	0.032278629588
1	4117	39.278155904153	0.026846187295
1	4122	39.305002091448	0.006786944807
1	4124	39.311789036255	0.021545767542
1	4133	39.333334803797	0.029976424462
1	4138	39.363311228259	0.04147449268
1	4143	39.404785720939	0.073346089309
1	4150	39.478131810248	0.083458472967
1	4157	39.561590283215	0.138135666127
1	4164	39.699725949342	0.075868895036
1	4169	39.775594844378	0.083848672104
1	4174	39.859443516482	0.085695601256
1	4182	39.945139117738	0.041901154209
1	4187	39.987040271947	0.031818059738
1	4192	40.018858331685	0.232689615018
1	4199	40.251547946703	0.028972271165
1	4204	40.280520217868	0.069467342702
1	4209	40.34998756057	0.037819354351
1	4214	40.387806914921	0.014811017462
1	4219	40.402617932383	0.030610346011
1	4224	40.433228278394	0.029682901096
1	4229	40.46291117949	0.214437503995
1	4236	40.677348683485	0.071577169643
1	4241	40.748925853128	0.142839871324
1	4246	40.891765724452	0.013302847554
1	4251	40.905068572006	0.253491610253
1	4259	41.158560182259	0.014404583952
1	4264	41.172964766211	0.085915961765
1	4269	41.258880727976	0.028495291599
1	4274	41.287376019575	0.066890089283
1	4279	41.354266108858	0.001127542415
1	4281	41.355393651273	0.000574442781
1	4283	41.355968094054	0.139742047564
1	4295	41.495710141618	0.081689183133
1	4300	41.577399324751	0.10902029024
1	4307	41.686419614991	0.110490462521
1	4312	41.796910077512	0.008569811736
1	4317	41.805479889248	0.01078297474
1	4322	41.816262863988	0.031339528691
1	4327	41.847602392679	0.036082646123
1	4332	41.883685038802	0.016538873667
1	4338	41.900223912469	0.066087064318
1	4343	41.966310976787	0.013214599282
1	4348	41.979525576069	0.016926894504
1	4353	41.996452470573	0.120153851243
1	4360	42.116606321816	6.3685904e-05
1	4362	42.11667000772	0.031473264491
1	4370	42.148143272211	0.061779361064
1	4375	42.209922633275	0.11377953628
1	4380	42.323702169555	0.004531167212
1	4382	42.328233336767	0.13576454239
1	4391	42.463997879157	0.069024474206
1	4397	42.533022353363	0.007981381867
1	4402	42.54100373523	0.022409157298
1	4407	42.563412892528	0.002953007494
1	4409	42.566365900022	0.047119638103
1	4417	42.613485538125	0.02186092603
1	4422	42.635346464155	0.100441056961
1	4427	42.735787521116	0.014198810254
1	4433	42.74998633137	0.057957520115
1	4438	42.807943851485	0.071343993471
1	4443	42.879287844956	0.006438468694
1	4445	42.88572631365	0.141834116109
1	4453	43.027560429759	0.05721883451
1	4459	43.084779264269	0.069852418987
1	4465	43.154631683256	0.039429621343
1	4471	43.194061304599	0.036233608124
1	4476	43.230294912723	0.058309078186
1	4481	43.288603990909	0.003370995013
1	4483	43.291974985922	0.061061803398
1	4491	43.35303678932	0.034134230425
1	4496	43.387171019745	0.032054933854
1	4502	43.419225953599	0.004311156862
1	4504	43.423537110461	0.00939263909
1	4509	43.432929749551	0.00314671725
1	4514	43.436076466801	0.021079355704
1	4522	43.457155822505	0.025301407624
1	4528	43.482457230129	0.063640727713
1	4535	43.546097957842	0.096106380198
1	4540	43.64220433804	0.015544538386
1	4545	43.657748876426	0.431566819645
1	4558	44.089315696071	0.028414067856
1	4563	44.117729763927	0.136371802646
1	4568	44.254101566573	0.139032456976
1	4574	44.393134023549	0.027627530956
1	4579	44.420761554505	0.006672025223
1	4581	44.427433579728	0.00092210811
1	4583	44.428355687838	0.120490408385
1	4595	44.548846096223	0.070260483727
1	4600	44.61910657995	0.043220218174
1	4607	44.662326798124	0.054429634528
1	4615	44.716756432652	0.017407231475
1	4620	44.734163664127	0.137173301782
1	4626	44.871336965909	0.107081033927
1	4634	44.978417999836	0.058402729088
1	4640	45.036820728924	0.139611204765
1	4647	45.176431933689	0.024396685181
1	4653	45.20082861887	0.007474150347
1	4658	45.208302769217	0.161109008659
1	4664	45.369411777876	0.035946039733
1	4670	45.405357817609	0.016154301817
1	4675	45.421512119426	0.004885963723
1	4678	45.426398083149	0.080513770059
1	4689	45.506911853208	0.084799846446
1	4695	45.591711699654	0.014648351042
1	4700	45.606360050696	0.043934398852
1	4706	45.650294449548	0.121290937544
1	4712	45.771585387092	0.074479705
1	4717	45.846065092092	0.035294511083
1	4722	45.881359603175	0.035806490115
1	4727	45.91716609329	0.117751294679
1	4734	46.034917387969	0.003680787417
1	4736	46.038598175386	0.012081876805
1	4744	46.050680052191	0.064692544562
1	4750	46.115372596753	0.006614096243
1	4752	46.121986692996	0.005246702001
1	4757	46.127233394997	0.144936974902
1	4770	46.272170369899	0.022407535552
1	4775	46.294577905451	0.112133815391
1	4780	46.406711720842	0.041308893952
1	4785	46.448020614794	0.055807994984
1	4792	46.503828609778	0.003835913425
1	4794	46.507664523203	0.034817327045
1	4802	46.542481850248	0.004736525124
1	4804	46.547218375372	0.151821337696
1	4813	46.699039713068	0.117632043851
1	4819	46.816671756919	0.009793058647
1	4824	46.826464815566	0.200673027871
1	4830	47.027137843437	0.03041390665
1	4835	47.057551750087	0.008115893332
1	4840	47.065667643419	0.028257819658
1	4845	47.093925463077	0.106644825531
1	4853	47.200570288608	0.015502735062
1	4858	47.21607302367	0.018810566556
1	4863	47.234883590226	0.000546683501
1	4865	47.235430273727	0.120151073754
1	4873	47.355581347481	0.114403111748
1	4878	47.469984459229	0.028094555654
1	4883	47.498079014883	0.034178006124
1	4888	47.532257021007	0.004647882338
1	4890	47.536904903345	0.08299983158
1	4900	47.619904734925	0.033167356702
1	4905	47.653072091627	0.07086126932
1	4911	47.723933360947	0.031164138913
1	4916	47.75509749986	0.021653198017
1	4921	47.776750697877	0.051449367709
1	4927	47.828200065586	0.011496492504
1	4932	47.83969655809	0.082141142596
1	4937	47.921837700686	0.015607956501
1	4942	47.937445657187	0.238744553743
1	4949	48.17619021093	0.044595003459
1	4954	48.220785214389	0.021951523704
1	4959	48.242736738093	0.003910033624
1	4962	48.246646771717	0.004635221014
1	4967	48.251281992731	0.014748639651
1	4972	48.266030632382	0.048324662382
1	4980	48.314355294764	0.223581201699
1	4986	48.537936496463	0.24033837304
1	4991	48.778274869503	0.131394057451
1	4996	48.909668926954	0.085379071171
1	5001	48.995047998125	0.012492250624
1	5006	49.007540248749	0.07368970034
1	5012	49.081229949089	0.007190453092
1	5014	49.088420402181	0.137904485547
1	5023	49.226324887728	0.046418588263
1	5028	49.272743475991	0.006562366471
1	5030	49.279305842462	0.001962546043
1	5035	49.281268388505	0.010638496345
1	5040	49.29190688485	0.008787916977
1	5045	49.300694801827	0.020259153701
1	5053	49.320953955528	0.03683090584
1	5058	49.357784861368	0.046728422161
1	5065	49.404513283529	0.104374213831
1	5072	49.50888749736	0.025935278441
1	5077	49.534822775801	0.033057215813
1	5082	49.567879991614	0.125147803486
1	5087	49.6930277951	0.038809662468
1	5092	49.731837457568	0.020591174121
1	5097	49.752428631689	0.055908776864
1	5102	49.808337408553	0.040951503216
1	5108	49.849288911769	0.076058481014
1	5113	49.925347392783	0.019481128008
1	5118	49.944828520791	0.005638267175
1	5120	49.950466787966	0.019541549475
1	5128	49.970008337441	0.056018580615
1	5133	50.026026918056	0.073135437992
1	5139	50.099162356048	0.003907905139
1	5141	50.103070261187	0.052364008511
1	5152	50.155434269698	0.030594864904
1	5157	50.186029134602	0.000741760575
1	5159	50.186770895177	0.015574766874
1	5167	50.202345662051	0.062902594427
1	5174	50.265248256478	0.09002457406
1	5180	50.355272830538	0.022997959299
1	5185	50.378270789837	0.069261277347
1	5192	50.447532067184	0.005671511507
1	5194	50.453203578691	0.023175531939
1	5203	50.47637911063	0.012832452152
1	5208	50.489211562782	0.131605478995
1	5214	50.620817041777	0.106521492732
1	5220	50.727338534509	0.134347285702
1	5226	50.861685820211	0.011449549785
1	5231	50.873135369996	0.189663588584
1	5236	51.06279895858	0.008483603465
1	5241	51.071282562045	0.076039296086
1	5246	51.147321858131	0.020039198437
1	5251	51.167361056568	0.094745594223
1	5256	51.262106650791	0.006742045225
1	5258	51.268848696016	0.075922585953
1	5268	51.344771281969	0.065484489081
1	5273	51.41025577105	0.101416260782
1	5280	51.511672031832	0.090363292392
1	5285	51.602035324224	0.052480370412
1	5290	51.654515694636	0.260540587074
1	5296	51.91505628171	0.043942136227
1	5301	51.958998417937	0.015157280323
1	5307	51.97415569826	0.14284287782
1	5313	52.11699857608	0.024316850263
1	5318	52.141315426343	0.041297213282
1	5323	52.182612639625	0.112029591269
1	5328	52.294642230894	0.108228994688
1	5334	52.402871225582	0.057911105828
1	5339	52.46078233141	0.07180236566
1	5344	52.53258469707	0.028086683429
1	5351	52.560671380499	0.022613208383
1	5356	52.583284588882	0.044973659125
1	5363	52.628258248007	0.047176473869
1	5368	52.675434721876	0.07036764488
1	5373	52.745802366756	0.00611360648
1	5375	52.751915973236	0.001915865243
1	5377	52.753831838479	0.037556077324
1	5389	52.791387915803	0.002675397834
1	5391	52.794063313637	0.134481895634
1	5399	52.928545209271	0.111865344784
1	5405	53.040410554055	0.025570436564
1	5410	53.065980990619	0.107946443407
1	5416	53.173927434026	0.041086643852
1	5421	53.215014077878	0.025142222717
1	5426	53.240156300595	0.023214349327
1	5432	53.263370649922	0.044723297209
1	5437	53.308093947131	0.080640993539
1	5444	53.38873494067	0.014406385108
1	5449	53.403141325778	0.25156846051
1	5455	53.654709786288	0.011438360708
1	5460	53.666148146996	0.026517935396
1	5465	53.692666082392	0.004329099642
1	5467	53.696995182034	0.068440680406
1	5476	53.76543586244	0.012167877847
1	5481	53.777603740287	0.02986448627
1	5486	53.807468226557	0.066043235075
1	5491	53.873511461632	0.03429579777
1	5496	53.907807259402	0.00110899878
1	5498	53.908916258182	0.04175272778
1	5506	53.950668985962	0.129883637611
1	5511	54.080552623573	0.016748627398
1	5516	54.097301250971	0.021587834249
1	5521	54.11888908522	0.039688646634
1	5526	54.158577731854	0.006939958942
1	5528	54.165517690796	0.004002951797
1	5533	54.169520642593	0.001614317407
1	5535	54.17113496	0.087299465031
1	5547	54.258434425031	0.059693308924
1	5552	54.318127733955	0.041080410566
1	5558	54.359208144521	0.009698838584
1	5563	54.368906983105	0.03760397658
1	5568	54.406510959685	0.009054282063
1	5574	54.415565241748	0.004085741112
1	5576	54.41965098286	0.056091072586
1	5584	54.475742055446	0.051476478817
1	5589	54.527218534263	0.120274242106
1	5595	54.647492776369	0.039280110843
1	5602	54.686772887212	0.095208041797
1	5608	54.781980929009	0.134706277154
1	5615	54.916687206163	0.004406940284
1	5617	54.921094146447	0.084673001958
1	5627	55.005767148405	0.072813763507
1	5634	55.078580911912	0.021972765984
1	5639	55.100553677896	0.021097774888
1	5644	55.121651452784	0.003247748817
1	5646	55.124899201601	0.076935333024
1	5656	55.201834534625	0.105292561146
1	5662	55.307127095771	0.001882951751
1	5664	55.309010047522	0.11873721299
1	5672	55.427747260512	0.01233492882
1	5677	55.440082189332	0.031429358583
1	5684	55.471511547915	0.043431202724
1	5690	55.514942750639	0.071369458184
1	5696	55.586312208823	0.081834135682
1	5701	55.668146344505	0.045871718853
1	5707	55.714018063358	0.227644628866
1	5712	55.941662692224	0.133810587684
1	5717	56.075473279908	0.051194930528
1	5723	56.126668210436	0.027885691903
1	5728	56.154553902339	0.077105149525
1	5733	56.231659051864	0.02703111998
1	5738	56.258690171844	0.03992087346
1	5743	56.298611045304	0.033204780614
1	5748	56.331815825918	0.06656553188
1	5753	56.398381357798	0.021217304902
1	5758	56.4195986627	0.019913883047
1	5765	56.439512545747	0.035427629527
1	5770	56.474940175274	0.089501422819
1	5775	56.564441598093	0.155638140783
1	5781	56.720079738876	4.355443e-05
1	5783	56.720123293306	0.012296654358
1	5788	56.732419947664	0.000279451999
1	5790	56.732699399663	0.012366468493
1	5798	56.745065868156	0.008507379669
1	5803	56.753573247825	0.132844466974
1	5812	56.886417714799	0.026558798465
1	5817	56.912976513264	0.03453960463
1	5822	56.947516117894	0.053851409776
1	5828	57.00136752767	0.033227141074
1	5833	57.034594668744	0.014666645429
1	5838	57.049261314173	0.023767294842
1	5843	57.073028609015	0.00982974902
1	5848	57.082858358035	0.031263065942
1	5853	57.114121423977	0.096967889851
1	5859	57.211089313828	0.02030033406
1	5864	57.231389647888	0.014061573582
1	5869	57.24545122147	0.008179907947
1	5874	57.253631129417	0.013539205312
1	5879	57.267170334729	0.013530570599
1	5884	57.280700905328	0.171251919718
1	5892	57.451952825046	0.024454642217
1	5897	57.476407467263	0.034623241773
1	5903	57.511030709036	0.020260093982
1	5908	57.531290803018	0.002943531212
1	5910	57.53423433423	0.047118228631
1	5918	57.581352562861	0.107443966474
1	5924	57.688796529335	0.002777720236
1	5926	57.691574249571	0.083268389157
1	5935	57.774842638728	0.041020546936
1	5940	57.815863185664	0.024921102853
1	5945	57.840784288517	0.039741621015
1	5951	57.880525909532	0.069524536736
1	5956	57.950050446268	0.036057099479
1	5961	57.986107545747	0.178728637694
1	5967	58.164836183441	0.058704360755
1	5973	58.223540544196	0.018969805232
1	5978	58.242510349428	0.105193490512
1	5985	58.34770383994	0.052454736794
1	5990	58.400158576734	0.022310461744
1	5995	58.422469038478	0.093255144364
1	6001	58.515724182842	0.091126218684
1	6006	58.606850401526	0.12786673738
1	6012	58.734717138906	0.000182327092
1	6014	58.734899465998	0.139361335536
1	6024	58.874260801534	0.141913708485
1	6030	59.016174510019	0.136953322896
1	6039	59.153127832915	0.019701743194
1	6044	59.172829576109	0.017859745192
1	6049	59.190689321301	0.038486399293
1	6055	59.229175720594	0.05678403045
1	6061	59.285959751044	0.009054463252
1	6067	59.295014214296	0.060156872203
1	6073	59.355171086499	0.006879061845
1	6075	59.362050148344	0.061926288039
1	6083	59.423976436383	0.063756296793
1	6089	59.487732733176	0.192296155587
1	6097	59.680028888763	0.035186976149
1	6102	59.715215864912	0.004722111736
1	6104	59.719937976648	0.018679972133
1	6112	59.738617948781	0.039528617628
1	6117	59.778146566409	0.012232742409
1	6122	59.790379308818	0.000735235334
1	6124	59.791114544152	0.06975434555
1	6132	59.860868889702	0.037247285013
1	6137	59.898116174715	0.022695942685
1	6142	59.9208121174	0.007453331697
1	6144	59.928265449097	0.074861371299
1	6156	60.003126820396	0.018949189814
1	6161	60.02207601021	0.050278055496
1	6166	60.072354065706	0.002179845204
1	6168	60.07453391091	0.011838227578
1	6174	60.086372138488	0.013161888652
1	6182	60.09953402714	0.113327049685
1	6190	60.212861076825	0.031483583739
1	6195	60.244344660564	0.040603888505
1	6200	60.284948549069	0.005296567121
1	6202	60.29024511619	0.015516558393
1	6210	60.305761674583	0.07713486078
1	6216	60.382896535363	0.00407895299
1	6218	60.386975488353	0.038162900255
1	6226	60.425138388608	0.116134779351
1	6232	60.541273167959	0.077271266231
1	6237	60.61854443419	0.037827882115
1	6242	60.656372316305	0.036355373754
1	6247	60.692727690059	0.041080633827
1	6252	60.733808323886	0.000934571276
1	6254	60.734742895162	0.016166678426
1	6262	60.750909573588	0.082763980463
1	6267	60.833673554051	0.062244271584
1	6273	60.895917825635	0.056787459853
1	6280	60.952705285488	0.060040639665
1	6286	61.012745925153	0.002347895074
1	6288	61.015093820227	0.019492784211
1	6296	61.034586604438	0.01468752236
1	6301	61.049274126798	0.007197013836
1	6306	61.056471140634	0.005360082815
1	6308	61.061831223449	0.007263091266
1	6313	61.069094314715	0.112819647283
1	6324	61.181913961998	0.033243676857
1	6329	61.215157638855	0.034825587678
1	6334	61.249983226533	0.030315604643
1	6339	61.280298831176	0.038966082925
1	6345	61.319264914101	0.048692053507
1	6350	61.367956967608	0.023907988562
1	6355	61.39186495617	0.04166746772
1	6360	61.43353242389	0.043418193006
1	6365	61.476950616896	0.044624277453
1	6370	61.521574894349	0.060114759173
1	6376	61.581689653522	0.196585561501
1	6383	61.778275215023	8.1244878e-05
1	6385	61.778356459901	0.022317139726
1	6393	61.800673599627	0.126945661507
1	6400	61.927619261134	0.155647209499
1	6405	62.083266470633	0.037511429983
1	6411	62.120777900616	0.014033634041
1	6416	62.134811534657	0.008625243275
1	6421	62.143436777932	0.023241771945
1	6426	62.166678549877	0.001202207774
1	6428	62.167880757651	0.088929895698
1	6437	62.256810653349	0.050063181409
1	6442	62.306873834758	0.016856129409
1	6447	62.323729964167	0.075820217371
1	6452	62.399550181538	0.034321172655
1	6457	62.433871354193	0.073429023831
1	6463	62.507300378024	0.064559558841
1	6468	62.571859936865	0.000987577254
1	6470	62.572847514119	0.035363135201
1	6478	62.60821064932	0.00493079457
1	6480	62.61314144389	0.014643231769
1	6488	62.627784675659	0.06949136551
1	6493	62.697276041169	0.113823346879
1	6499	62.811099388048	0.055767158253
1	6506	62.866866546301	0.014522426712
1	6511	62.881388973013	0.051612965484
1	6517	62.933001938497	0.063145424709
1	6523	62.996147363206	0.143240572672
1	6530	63.139387935878	0.08613332385
1	6535	63.225521259728	0.097403519676
1	6541	63.322924779404	0.021509977919
1	6546	63.344434757323	0.06819449393
1	6552	63.412629251253	0.052891543501
1	6557	63.465520794754	0.099039457435
1	6562	63.564560252189	0.018922538759
1	6567	63.583482790948	0.070934456288
1	6573	63.654417247236	0.043933176041
1	6578	63.698350423277	0.050075618454
1	6584	63.748426041731	0.025968788534
1	6589	63.774394830265	0.09988960471
1	6595	63.874284434975	0.018149448784
1	6600	63.892433883759	0.041509703841
1	6605	63.9339435876	0.047180842975
1	6610	63.981124430575	0.005431951232
1	6612	63.986556381807	0.118009823217
1	6621	64.104566205024	0.009591185607
1	6627	64.114157390631	0.106636469416
1	6632	64.220793860047	0.033665318761
1	6638	64.254459178808	0.026914987903
1	6643	64.281374166711	0.04947949189
1	6648	64.330853658601	0.028149529691
1	6653	64.359003188292	0.000887056688
1	6655	64.35989024498	0.104761754283
1	6665	64.464651999263	0.095740369192
1	6670	64.560392368455	0.026336343586
1	6675	64.586728712041	0.002196645853
1	6677	64.588925357894	0.099243107676
1	6685	64.68816846557	0.016487022451
1	6690	64.704655488021	0.018695551997
1	6695	64.723351040018	0.086468703529
1	6700	64.809819743547	0.006269077369
1	6702	64.816088820916	0.087699302259
1	6712	64.903788123175	0.036977405079
1	6717	64.940765528254	0.030841776795
1	6722	64.971607305049	0.046908461911
1	6727	65.01851576696	0.083130046669
1	6732	65.101645813629	0.09058040904
1	6738	65.192226222669	0.019009712997
1	6743	65.211235935666	0.001516638031
1	6745	65.212752573697	0.123307686798
1	6753	65.336060260495	0.022338624401
1	6758	65.358398884896	0.005910633669
1	6760	65.364309518565	0.003931203091
1	6765	65.368240721656	0.019062181171
1	6773	65.387302902827	0.028571977865
1	6778	65.415874880692	0.077243548362
1	6783	65.493118429054	0.037810259086
1	6788	65.53092868814	0.027773317253
1	6793	65.558702005393	0.027282462679
1	6799	65.585984468072	0.06143471482
1	6804	65.647419182892	0.037086971418
1	6809	65.68450615431	0.041365657283
1	6814	65.725871811593	0.070326816152
1	6819	65.796198627745	0.002886331677
1	6821	65.799084959422	0.006956601225
1	6826	65.806041560647	0.210686700147
1	6835	66.016728260794	0.045551717875
1	6840	66.062279978669	0.057014541674
1	6845	66.119294520343	0.101002110454
1	6851	66.220296630797	0.088464700989
1	6857	66.308761331786	0.018012314755
1	6862	66.326773646541	0.002808510495
1	6864	66.329582157036	0.018225608061
1	6873	66.347807765097	0.020856943482
1	6878	66.368664708579	0.000312293661
1	6880	66.36897700224	0.010056395575
1	6885	66.379033397815	0.06150239653
1	6893	66.440535794345	0.063567059014
1	6898	66.504102853359	0.003374781546
1	6900	66.507477634905	0.017983349605
1	6908	66.52546098451	0.021232870683
1	6913	66.546693855193	0.027501204342
1	6918	66.574195059535	0.105530364116
1	6923	66.679725423651	0.149687028757
1	6929	66.829412452408	0.005655038031
1	6931	66.835067490439	0.062008989777
1	6939	66.897076480216	0.036593452173
1	6944	66.933669932389	0.06926959382
1	6952	67.002939526209	0.112363749861
1	6958	67.11530327607	0.128168400635
1	6965	67.243471676705	0.017555338675
1	6970	67.26102701538	0.056235144794
1	6976	67.317262160174	0.036172207582
1	6981	67.353434367756	0.072500207747
1	6986	67.425934575503	0.017270355864
1	6991	67.443204931367	0.047036282287
1	6996	67.490241213654	0.026144215653
1	7001	67.516385429307	0.137135777146
1	7007	67.653521206453	0.065523505519
1	7012	67.719044711972	0.039616297402
1	7018	67.758661009374	0.068487477939
1	7023	67.827148487313	0.032047089067
1	7030	67.85919557638	0.059888249861
1	7036	67.919083826241	0.188742329182
1	7042	68.107826155423	0.035290298256
1	7047	68.143116453679	0.072428119251
1	7053	68.21554457293	0.078402957698
1	7058	68.293947530628	0.02378501758
1	7063	68.317732548208	0.021973732725
1	7068	68.339706280933	0.024511370846
1	7074	68.364217651779	0.021597465954
1	7079	68.385815117733	0.051351128394
1	7084	68.437166246127	0.057532972367
1	7089	68.494699218494	0.042658588426
1	7095	68.53735780692	0.01272779994
1	7100	68.55008560686	0.01699997487
1	7105	68.56708558173	0.011129564737
1	7111	68.578215146467	0.05485914884
1	7117	68.633074295307	0.029527317013
1	7124	68.66260161232	0.028142765671
1	7129	68.690744377991	0.064030409059
1	7134	68.75477478705	0.053595004908
1	7139	68.808369791958	0.028289866613
1	7145	68.836659658571	0.040387700662
1	7151	68.877047359233	0.081759257659
1	7157	68.958806616892	0.01617535988
1	7162	68.974981976772	0.015400153958
1	7167	68.99038213073	0.07350290814
1	7172	69.06388503887	0.050092594478
1	7178	69.113977633348	0.068517572797
1	7183	69.182495206145	0.004858686618
1	7185	69.187353892763	0.347425039143
1	7194	69.534778931906	0.00911357813
1	7199	69.543892510036	0.016856413247
1	7204	69.560748923283	0.008257744652
1	7207	69.569006667935	0.081825633298
1	7217	69.650832301233	0.056202764686
1	7222	69.707035065919	0.005506876457
1	7224	69.712541942376	0.039561892286
1	7232	69.752103834662	0.004362836923
1	7235	69.756466671585	0.047246440292
1	7243	69.803713111877	0.062401243244
1	7249	69.866114355121	0.060427231949
1	7254	69.92654158707	0.061213396693
1	7259	69.987754983763	0.160352534978
1	7264	70.148107518741	0.041528924456
1	7270	70.189636443197	0.024675417007
1	7275	70.214311860204	0.080287711879
1	7280	70.294599572083	0.105712497996
1	7286	70.400312070079	0.042060465154
1	7291	70.442372535233	0.023922834545
1	7296	70.466295369778	0.109169697989
1	7304	70.575465067767	0.101238724931
1	7310	70.676703792698	0.055426949661
1	7316	70.732130742359	5.0124683e-05
1	7318	70.732180867042	0.013142239908
1	7323	70.74532310695	0.01447152028
1	7331	70.75979462723	0.048716895774
1	7337	70.808511523004	0.21076502502
1	7343	71.019276548024	0.036956371025
1	7348	71.056232919049	0.050463213982
1	7353	71.106696133031	0.020257477385
1	7358	71.126953610416	0.046447648171
1	7363	71.173401258587	0.004540096779
1	7365	71.177941355366	0.036822575861
1	7374	71.214763931227	0.126715201523
1	7379	71.34147913275	0.019436355232
1	7384	71.360915487982	0.022340206459
1	7390	71.383255694441	0.001488000046
1	7392	71.384743694487	0.015230105879
1	7400	71.399973800366	0.003580546951
1	7402	71.403554347317	0.029656994602
1	7410	71.433211341919	0.025192636671
1	7415	71.45840397859	0.022926162298
1	7420	71.481330140888	0.098012046367
1	7425	71.579342187255	0.236443997067
1	7431	71.815786184322	0.010492565512
1	7436	71.826278749834	0.013945437313
1	7441	71.840224187147	0.017298506093
1	7447	71.85752269324	0.01979388486
1	7452	71.8773165781	0.017603484764
1	7457	71.894920062864	0.001933142741
1	7459	71.896853205605	0.034584012293
1	7467	71.931437217898	0.012986742163
1	7472	71.944423960061	0.163389430197
1	7479	72.107813390258	0.057184785423
1	7484	72.164998175681	0.006844282568
1	7486	72.171842458249	0.018639990908
1	7494	72.190482449157	0.229138806136
1	7501	72.419621255293	0.02367114573
1	7506	72.443292401023	0.02401697949
1	7512	72.467309380513	0.053527154737
1	7517	72.52083653525	0.024647094145
1	7522	72.545483629395	0.003670817026
1	7524	72.549154446421	0.015302866455
1	7532	72.564457312876	0.020858345176
1	7537	72.585315658052	0.004740379969
1	7539	72.590056038021	0.134329310778
1	7547	72.724385348799	0.019551463446
1	7553	72.743936812245	0.036652534412
1	7558	72.780589346657	0.061650692001
1	7563	72.842240038658	0.023762491384
1	7569	72.866002530042	0.241761975187
1	7574	73.107764505229	0.21029337202
1	7580	73.318057877249	0.150934112941
1	7585	73.46899199019	0.00124653197
1	7587	73.47023852216	0.018811964443
1	7595	73.489050486603	0.065478057153
1	7600	73.554528543756	0.01082906712
1	7605	73.565357610876	0.031267067725
1	7611	73.596624678601	0.034217737413
1	7616	73.630842416014	0.004588113509
1	7618	73.635430529523	0.016961580838
1	7626	73.652392110361	0.167480366505
1	7635	73.819872476866	0.049531661214
1	7641	73.86940413808	0.03337290474
1	7647	73.90277704282	0.075465987302
1	7652	73.978243030122	0.005878496331
1	7654	73.984121526453	0.004027920962
1	7659	73.988149447415	0.029368207355
1	7667	74.01751765477	0.094761983705
1	7674	74.112279638475	0.01844496588
1	7679	74.130724604355	0.012424197772
1	7684	74.143148802127	0.064996245264
1	7690	74.208145047391	0.037039176102
1	7695	74.245184223493	0.032505021955
1	7700	74.277689245448	0.00483761991
1	7702	74.282526865358	0.010597044875
1	7707	74.293123910233	0.024110691799
1	7715	74.317234602032	0.052755429874
1	7720	74.369990031906	0.060095974276
1	7726	74.430086006182	0.059470906437
1	7731	74.489556912619	0.102490583186
1	7736	74.592047495805	0.033819855956
1	7741	74.625867351761	0.16940300764
1	7749	74.795270359401	0.155364718203
1	7754	74.950635077604	0.026834173584
1	7759	74.977469251188	0.112758068699
1	7764	75.090227319887	0.053068810545
1	7769	75.143296130432	0.107608417836
1	7774	75.250904548268	0.035283052771
1	7780	75.286187601039	0.060087469213
1	7786	75.346275070252	0.026806352392
1	7791	75.373081422644	0.021772476376
1	7796	75.39485389902	0.224374529812
1	7801	75.619228428832	0.161098397864
1	7808	75.780326826696	0.177930256385
1	7814	75.958257083081	0.089306529356
1	7821	76.047563612437	0.144516966908
1	7828	76.192080579345	0.002063327686
1	7830	76.194143907031	0.028618015799
1	7838	76.22276192283	0.026880979166
1	7843	76.249642901996	0.069379816417
1	7848	76.319022718413	0.070456862778
1	7855	76.389479581191	0.028067288456
1	7861	76.417546869647	0.062887971654
1	7866	76.480434841301	0.001419058457
1	7868	76.481853899758	0.062338278389
1	7876	76.544192178147	0.039586141281
1	7881	76.583778319428	0.094094926928
1	7886	76.677873246356	0.057503537629
1	7891	76.735376783985	0.009930808134
1	7896	76.745307592119	0.03018619483
1	7901	76.775493786949	0.00600967304
1	7903	76.781503459989	0.003919446189
1	7908	76.785422906178	0.047858527768
1	7916	76.833281433946	0.047297015915
1	7922	76.880578449861	0.400327381543
1	7931	77.280905831404	0.054668885972
1	7936	77.335574717376	0.152488951945
1	7942	77.488063669321	0.116355331385
1	7948	77.604419000706	0.037236876519
1	7953	77.641655877225	0.104380877715
1	7959	77.74603675494	0.029819612031
1	7964	77.775856366971	0.064411689756
1	7970	77.840268056727	0.035482454203
1	7975	77.87575051093	0.055138218528
1	7980	77.930888729458	0.009246453542
1	7985	77.940135183	0.057015062317
1	7990	77.997150245317	0.167509894212
1	7996	78.164660139529	0.036490180325
1	8001	78.201150319854	0.14442029177
1	8008	78.345570611624	0.010614386878
1	8013	78.356184998502	0.04245704047
1	8018	78.398642038972	0.007267437531
1	8020	78.405909476503	0.001415213676
1	8025	78.407324690179	0.028196860131
1	8034	78.43552155031	0.036279570685
1	8040	78.471801120995	0.025584344168
1	8046	78.497385465163	0.104258667321
1	8052	78.601644132484	0.1209111219
1	8058	78.722555254384	0.111652435701
1	8063	78.834207690085	0.018621968691
1	8068	78.852829658776	0.120286414316
1	8073	78.973116073092	0.048800143189
1	8079	79.021916216281	0.006381826953
1	8081	79.028298043234	0.090192543522
1	8089	79.118490586756	0.004447426693
1	8091	79.122938013449	0.000543616
1	8093	79.123481629449	0.127096697752
1	8106	79.250578327201	0.009268868049
1	8111	79.25984719525	0.07186571032
1	8116	79.33171290557	0.010936754876
1	8121	79.342649660446	0.042508469174
1	8127	79.38515812962	0.052804253931
1	8132	79.437962383551	0.001095936961
1	8134	79.439058320512	0.037323897258
1	8142	79.47638221777	0.152980340541
1	8148	79.629362558311	0.051430707762
1	8154	79.680793266073	0.012022648741
1	8159	79.692815914814	0.006324265761
1	8162	79.699140180575	0.020575372323
1	8170	79.719715552898	0.010660232271
1	8175	79.730375785169	0.015247288637
1	8180	79.745623073806	0.043834106215
1	8185	79.789457180021	0.0337284975
1	8190	79.823185677521	0.050245325294
1	8198	79.873431002815	0.039393769518
1	8203	79.912824772333	0.01477534209
1	8208	79.927600114423	0.187253192156
1	8215	80.114853306579	0.051777300254
1	8220	80.166630606833	0.022418791324
1	8225	80.189049398157	0.015474229955
1	8231	80.204523628112	0.086917662026
1	8236	80.291441290138	0.038674669503
1	8241	80.330115959641	0.049073472611
1	8247	80.379189432252	0.079813251025
1	8252	80.459002683277	0.096035876591
1	8258	80.555038559868	0.008255265828
1	8263	80.563293825696	0.021622855813
1	8269	80.584916681509	0.028288340649
1	8275	80.613205022158	0.027448528339
1	8280	80.640653550497	0.043334776015
1	8285	80.683988326512	0.215222353377
1	8290	80.899210679889	0.100928015285
1	8295	81.000138695174	0.020052025995
1	8301	81.020190721169	0.028431714122
1	8308	81.048622435291	0.020858809418
1	8313	81.069481244709	0.035594250747
1	8318	81.105075495456	0.059617656269
1	8323	81.164693151725	0.049402521922
1	8328	81.214095673647	0.131086199486
1	8333	81.345181873133	0.107446587752
1	8339	81.452628460885	0.067803705807
1	8344	81.520432166692	0.128926752952
1	8349	81.649358919644	0.010247006703
1	8354	81.659605926347	0.00433296012
1	8357	81.663938886467	0.009935008062
1	8362	81.673873894529	0.054208130796
1	8370	81.728082025325	0.089024640661
1	8376	81.817106665986	0.136171143871
1	8382	81.953277809857	0.009686205734
1	8387	81.962964015591	0.047504016794
1	8392	82.010468032385	0.067452986186
1	8397	82.077921018571	0.092954987384
1	8402	82.170876005955	0.010851301621
1	8407	82.181727307576	0.007376322231
1	8409	82.189103629807	0.05413898741
1	8417	82.243242617217	0.011926813813
1	8422	82.25516943103	0.053729183599
1	8427	82.308898614629	0.05646161511
1	8432	82.365360229739	0.012319006881
1	8437	82.37767923662	0.034647578001
1	8442	82.412326814621	0.00731534115
1	8444	82.419642155771	0.031336308669
1	8453	82.45097846444	0.064740848616
1	8458	82.515719313056	0.000756020862
1	8460	82.516475333918	0.288354697642
1	8471	82.80483003156	0.018652496381
1	8476	82.823482527941	0.024955721943
1	8481	82.848438249884	0.007385604265
1	8483	82.855823854149	0.046688468896
1	8492	82.902512323045	0.087364760288
1	8501	82.989877083333	0.008723777622
1	8506	82.998600860955	0.14004451972
1	8513	83.138645380675	0.045856736744
1	8519	83.184502117419	0.065548295323
1	8525	83.250050412742	0.007124823914
1	8527	83.257175236656	0.020507494122
1	8535	83.277682730778	0.022390472945
1	8540	83.300073203723	0.026416764557
1	8545	83.32648996828	0.045181484702
1	8550	83.371671452982	0.067986685317
1	8555	83.439658138299	0.004314713052
1	8557	83.443972851351	0.118060378903
1	8567	83.562033230254	0.039583463148
1	8574	83.601616693402	0.030721086623
1	8580	83.632337780025	0.038427316101
1	8585	83.670765096126	0.00744245508
1	8590	83.678207551206	0.010723916814
1	8595	83.68893146802	0.028031350576
1	8600	83.716962818596	0.005334242995
1	8602	83.722297061591	0.029729059563
1	8610	83.752026121154	0.004483759612
1	8612	83.756509880766	0.009515608525
1	8617	83.766025489291	0.001274654227
1	8622	83.767300143518	0.202361014678
1	8630	83.969661158196	0.187640070812
1	8637	84.157301229008	0.041418875371
1	8642	84.198720104379	0.154026876205
1	8648	84.352746980584	0.079546636554
1	8655	84.432293617138	0.079105187678
1	8661	84.511398804816	0.036412776602
1	8666	84.547811581418	0.064960051858
1	8671	84.612771633276	0.065450903863
1	8676	84.678222537139	0.023980366372
1	8681	84.702202903511	0.14841169297
1	8687	84.850614596481	0.092497931644
1	8693	84.943112528125	0.039907664112
1	8698	84.983020192237	0.035742937069
1	8703	85.018763129306	0.029819104519
1	8708	85.048582233825	0.076046331465
1	8714	85.12462856529	0.020063886528
1	8719	85.144692451818	0.014203814502
1	8724	85.15889626632	0.062642903518
1	8729	85.221539169838	0.040326060515
1	8734	85.261865230353	0.025072253834
1	8739	85.286937484187	9.18398e-05
1	8741	85.287029323987	0.010389240878
1	8746	85.297418564865	0.002897037121
1	8748	85.300315601986	0.012202225185
1	8756	85.312517827171	0.05901899206
1	8765	85.371536819231	0.088494694496
1	8770	85.460031513727	0.02530943214
1	8776	85.485340945867	0.052687755809
1	8781	85.538028701676	0.114535841993
1	8787	85.652564543669	0.005418884259
1	8789	85.657983427928	0.004689729749
1	8794	85.662673157677	0.003429059512
1	8796	85.666102217189	0.012636423579
1	8804	85.678738640768	0.046274452837
1	8812	85.725013093605	0.024984146483
1	8817	85.749997240088	0.036938771492
1	8822	85.78693601158	0.006759243821
1	8824	85.793695255401	0.014889882883
1	8833	85.808585138284	0.036179762089
1	8838	85.844764900373	0.050447490693
1	8844	85.895212391066	0.029979182654
1	8849	85.92519157372	0.024844970028
1	8854	85.950036543748	0.07748296624
1	8859	86.027519509988	0.136857840506
1	8864	86.164377350494	0.010337428825
1	8869	86.174714779319	0.127920668075
1	8875	86.302635447394	0.013560121755
1	8880	86.316195569149	0.061208447839
1	8885	86.377404016988	0.042508473969
1	8891	86.419912490957	0.141704289888
1	8896	86.561616780845	0.04129602939
1	8901	86.602912810235	0.075304494345
1	8906	86.67821730458	0.09851590299
1	8911	86.77673320757	0.076120436287
1	8916	86.852853643857	0.041617713911
1	8921	86.894471357768	0.056265101298
1	8926	86.950736459066	0.014688288278
1	8931	86.965424747344	0.037383931161
1	8936	87.002808678505	0.015010921211
1	8941	87.017819599716	0.004210735154
1	8943	87.02203033487	0.086556234287
1	8951	87.108586569157	0.000439064673
1	8953	87.10902563383	0.076601978054
1	8961	87.185627611884	0.042457307654
1	8966	87.228084919538	0.040553072092
1	8971	87.26863799163	0.000706390355
1	8973	87.269344381985	0.02571283324
1	8981	87.295057215225	0.146694785095
1	8988	87.44175200032	0.018581061334
1	8993	87.460333061654	0.058033920256
1	8998	87.51836698191	0.167767175149
1	9005	87.686134157059	0.023919759963
1	9010	87.710053917022	0.183465728095
1	9016	87.893519645117	0.018976898759
1	9021	87.912496543876	0.041478957774
1	9028	87.95397550165	0.070146802046
1	9033	88.024122303696	0.006282266001
1	9035	88.030404569697	0.079292275285
1	9044	88.109696844982	0.018089237504
1	9050	88.127786082486	0.053930902103
1	9055	88.181716984589	0.020798371991
1	9061	88.20251535658	0.084777564046
1	9066	88.287292920626	0.029003830708
1	9072	88.316296751334	0.043348497231
1	9077	88.359645248565	0.024138562708
1	9082	88.383783811273	0.052578055006
1	9088	88.436361866279	0.018510253539
1	9093	88.454872119818	0.06513493918
1	9098	88.520007058998	0.084760566501
1	9103	88.604767625499	0.046795552022
1	9108	88.651563177521	0.023252192694
1	9113	88.674815370215	0.104645955614
1	9119	88.779461325829	0.08462569753
1	9124	88.864087023359	0.085353459251
1	9131	88.94944048261	0.05449848046
1	9137	89.00393896307	0.069820284212
1	9142	89.073759247282	0.116804472747
1	9149	89.190563720029	0.063934632291
1	9156	89.25449835232	0.023444240933
1	9161	89.277942593253	0.114906096225
1	9168	89.392848689478	0.161929482102
1	9174	89.55477817158	0.022664075425
1	9179	89.577442247005	0.012801741781
1	9184	89.590243988786	0.040199139993
1	9189	89.630443128779	0.004667728806
1	9191	89.635110857585	0.270860792269
1	9200	89.905971649854	0.047499343691
1	9205	89.953470993545	0.016521839773
1	9211	89.969992833318	0.041270354679
1	9216	90.011263187997	0.032427929348
1	9221	90.043691117345	0.05667683341
1	9226	90.100367950755	0.050092449213
1	9232	90.150460399968	0.00756719581
1	9234	90.158027595778	0.031743210256
1	9242	90.189770806034	0.039319001157
1	9247	90.229089807191	0.097811933931
1	9254	90.326901741122	0.026478413974
1	9259	90.353380155096	0.000486093054
1	9261	90.35386624815	0.180544346378
1	9270	90.534410594528	0.031927834196
1	9275	90.566338428724	0.001661006636
1	9277	90.56799943536	0.019345920138
1	9285	90.587345355498	0.020238398835
1	9291	90.607583754333	0.005479357453
1	9293	90.613063111786	0.017084074451
1	9301	90.630147186237	0.017160905854
1	9306	90.647308092091	0.007480069899
1	9308	90.65478816199	0.041835591789
1	9321	90.696623753779	7.5695563e-05
1	9323	90.696699449342	0.086337083951
1	9332	90.783036533293	0.024649989695
1	9337	90.807686522988	0.099533868749
1	9344	90.907220391737	0.106330147411
1	9349	91.013550539148	0.024482746198
1	9354	91.038033285346	0.111899126318
1	9359	91.149932411664	0.014200203033
1	9364	91.164132614697	0.079881047141
1	9369	91.244013661838	0.003586382995
1	9371	91.247600044833	0.00974375116
1	9376	91.257343795993	0.087101804009
1	9384	91.344445600002	0.108811116008
1	9391	91.45325671601	0.139391576628
1	9397	91.592648292638	0.031267537062
1	9402	91.6239158297	0.030075408039
1	9407	91.653991237739	0.0087905806
1	9412	91.662781818339	0.056432699635
1	9417	91.719214517974	0.002579864697
1	9419	91.721794382671	0.035806930915
1	9428	91.757601313586	0.055107620245
1	9433	91.812708933831	0.01498546448
1	9438	91.827694398311	0.001783938008
1	9440	91.829478336319	0.046462473546
1	9448	91.875940809865	0.128989651327
1	9453	92.004930461192	0.006349879826
1	9455	92.011280341018	0.002250535497
1	9460	92.013530876515	0.12761534182
1	9471	92.141146218335	0.075308484926
1	9476	92.216454703261	0.051853115471
1	9481	92.268307818732	0.009156685023
1	9486	92.277464503755	0.087695616145
1	9491	92.3651601199	0.015767259811
1	9496	92.380927379711	0.06177986183
1	9502	92.442707241541	0.012143460565
1	9507	92.454850702106	0.037137239529
1	9512	92.491987941635	0.046725956237
1	9517	92.538713897872	0.015796629332
1	9523	92.554510527204	0.034680949172
1	9528	92.589191476376	0.078075575198
1	9534	92.667267051574	0.05973166969
1	9539	92.726998721264	0.020251024568
1	9544	92.747249745832	0.111848298766
1	9551	92.859098044598	0.004580397714
1	9553	92.863678442312	0.002645229969
1	9555	92.866323672281	0.106021014651
1	9567	92.972344686932	0.06385009334
1	9573	93.036194780272	0.05402608399
1	9578	93.090220864262	0.032163224595
1	9583	93.122384088857	0.075530684319
1	9588	93.197914773176	0.010506106782
1	9593	93.208420879958	0.17942243878
1	9598	93.387843318738	0.004347686049
1	9600	93.392191004787	0.079272272354
1	9608	93.471463277141	0.045264394592
1	9613	93.516727671733	0.004501525249
1	9615	93.521229196982	0.012130616004
1	9623	93.533359812986	0.008952370269
1	9629	93.542312183255	0.082075640752
1	9635	93.624387824007	0.083140300638
1	9640	93.707528124645	0.024657116587
1	9645	93.732185241232	0.045299439748
1	9650	93.77748468098	0.120867037513
1	9656	93.898351718493	0.005379493622
1	9658	93.903731212115	0.057501198379
1	9667	93.961232410494	0.063001324921
1	9672	94.024233735415	0.020601939442
1	9677	94.044835674857	0.001885843803
1	9679	94.04672151866	0.167985854029
1	9688	94.214707372689	0.039792279793
1	9694	94.254499652482	0.004722947382
1	9696	94.259222599864	0.042785020557
1	9705	94.302007620421	0.034670730859
1	9710	94.33667835128	0.079662324107
1	9715	94.416340675387	0.035824405293
1	9721	94.45216508068	0.06429024039
1	9726	94.51645532107	0.053986627717
1	9731	94.570441948787	0.057131505969
1	9737	94.627573454756	0.038236991428
1	9742	94.665810446184	0.041020491538
1	9747	94.706830937722	0.03751745228
1	9753	94.744348390002	0.019144700008
1	9758	94.76349309001	0.075419179579
1	9763	94.838912269589	0.027001833913
1	9768	94.865914103502	0.143915144918
1	9775	95.00982924842	0.042864625733
1	9780	95.052693874153	0.003137791928
1	9782	95.055831666081	0.001577688836
1	9784	95.057409354917	0.045004573162
1	9796	95.102413928079	0.05153418619
1	9801	95.153948114269	0.061453354246
1	9806	95.215401468515	0.048257630895
1	9811	95.26365909941	0.026757249453
1	9817	95.290416348863	0.080456887935
1	9823	95.370873236798	0.091423280075
1	9828	95.462296516873	0.004047784675
1	9830	95.466344301548	0.053695907224
1	9839	95.520040208772	0.017473066825
1	9844	95.537513275597	0.004682351286
1	9846	95.542195626883	0.012407560937
1	9854	95.55460318782	0.005054963551
1	9856	95.559658151371	0.039348261435
1	9864	95.599006412806	0.034059872791
1	9870	95.633066285597	0.400179110409
1	9878	96.033245396006	0.069360127607
1	9883	96.102605523613	0.003687890491
1	9885	96.106293414104	0.128875644458
1	9893	96.235169058562	0.022001492476
1	9898	96.257170551038	0.105404205708
1	9903	96.362574756746	0.107022589932
1	9908	96.469597346678	0.001326197134
1	9910	96.470923543812	0.010666105288
1	9915	96.4815896491	0.007665553316
1	9920	96.489255202416	0.028072891836
1	9928	96.517328094252	0.075029596144
1	9934	96.592357690396	0.077795683746
1	9941	96.670153374142	0.010905683065
1	9946	96.681059057207	0.004238833985
1	9948	96.685297891192	0.144486952495
1	9958	96.829784843687	0.215059423035
1	9963	97.044844266722	0.00882494064
1	9968	97.053669207362	0.034380255718
1	9973	97.08804946308	0.117945849572
1	9980	97.205995312652	0.027268202111
1	9985	97.233263514763	0.079663033378
1	9994	97.312926548141	0.026763330976
1	9999	97.339689879117	0.089458382954
1	10006	97.429148262071	0.196601361029
1	10014	97.6257496231	0.000763453111
1	10016	97.626513076211	0.008876294062
1	10022	97.635389370273	0.042992822985
1	10030	97.678382193258	0.037180421249
1	10035	97.715562614507	0.067694684518
1	10041	97.783257299025	0.095730032876
1	10047	97.878987331901	0.030042318505
1	10052	97.909029650406	0.040019348687
1	10059	97.949048999093	0.068105309168
1	10065	98.017154308261	0.047422565796
1	10072	98.064576874057	0.159703176695
1	10077	98.224280050752	0.070517400894
1	10082	98.294797451646	0.038657367
1	10087	98.333454818646	0.008635340788
1	10092	98.342090159434	0.003810122092
1	10094	98.345900281526	0.022450727408
1	10102	98.368351008934	0.033210102261
1	10107	98.401561111195	0.011841793566
1	10112	98.413402904761	0.023645598817
1	10117	98.437048503578	0.023421973156
1	10123	98.460470476734	0.023252237751
1	10128	98.483722714485	0.004693124842
1	10130	98.488415839327	0.036913535009
1	10138	98.525329374336	0.042716651225
1	10143	98.568046025561	0.129728926337
1	10149	98.697774951898	0.063958009006
1	10155	98.761732960904	0.008784817182
1	10160	98.770517778086	0.003277348441
1	10162	98.773795126527	0.03233582022
1	10170	98.806130946747	0.082116348296
1	10178	98.888247295043	0.114931342509
1	10183	99.003178637552	0.085167054981
1	10188	99.088345692533	0.002921492991
1	10190	99.091267185524	0.00099366017
1	10192	99.092260845694	0.040191923612
1	10203	99.132452769306	0.105463707565
1	10208	99.237916476871	0.055666023563
1	10213	99.293582500434	0.000501298986
1	10215	99.29408379942	0.000604678866
1	10217	99.294688478286	0.113625748979
1	10228	99.408314227265	0.006993285848
1	10230	99.415307513113	0.029551791138
1	10238	99.444859304251	0.057180360664
1	10243	99.502039664915	0.013306683065
1	10248	99.51534634798	0.104660319737
1	10255	99.620006667717	0.078859195697
1	10261	99.698865863414	0.00834520481
1	10266	99.707211068224	0.016641582898
1	10271	99.723852651122	0.017592993041
1	10276	99.741445644163	0.006713609247
1	10278	99.74815925341	0.077347912402
1	10288	99.825507165812	0.014187198364
1	10293	99.839694364176	0.07254020647
1	10299	99.912234570646	0.076985235545
1	10307	99.989219806191	0.002398387494
1	10309	99.991618193685	0.061009944205
1	10318	100.05262813789	0.022519011743
1	10323	100.075147149633	0.022581462388
1	10328	100.097728612021	0.021417109531
1	10333	100.119145721552	0.012664226223
1	10338	100.131809947775	0.017418230702
1	10343	100.149228178477	0.037423294156
1	10350	100.186651472633	0.032287243909
1	10355	100.218938716542	0.023617127484
1	10360	100.242555844026	0.01272000525
1	10365	100.255275849276	0.008494654921
1	10371	100.263770504197	0.014091196894
1	10376	100.277861701091	0.090897531262
1	10381	100.368759232353	0.160628927784
1	10386	100.529388160137	0.048440513374
1	10391	100.577828673511	0.000299264825
1	10393	100.578127938336	0.031306419224
1	10401	100.60943435756	0.010162989114
1	10406	100.619597346674	0.026424753246
1	10411	100.64602209992	0.017510100847
1	10416	100.663532200767	0.002840852205
1	10418	100.666373052972	0.01378481821
1	10426	100.680157871182	0.051100007169
1	10431	100.731257878351	0.031466567892
1	10436	100.762724446243	0.006791003632
1	10438	100.769515449875	0.052024973546
1	10446	100.821540423421	0.000907399002
1	10448	100.822447822423	0.002843506251
1	10450	100.825291328674	0.04588763536
1	10462	100.871178964034	0.040129271503
1	10467	100.911308235537	0.007672518383
1	10469	100.91898075392	0.010692057541
1	10477	100.929672811461	0.159001185208
1	10485	101.088673996669	0.004450137169
1	10487	101.093124133838	0.053746276775
1	10497	101.146870410613	0.068400280018
1	10502	101.215270690631	0.004685910029
1	10504	101.21995660066	0.035488054215
1	10512	101.255444654875	0.04949858869
1	10518	101.304943243565	0.076010056561
1	10523	101.380953300126	0.092372349436
1	10529	101.473325649562	0.011016069314
1	10534	101.484341718876	0.005064152561
1	10536	101.489405871437	0.017950427164
1	10544	101.507356298601	0.123747952982
1	10549	101.631104251583	0.009741133622
1	10554	101.640845385205	0.009257568044
1	10559	101.650102953249	0.003053818731
1	10563	101.65315677198	0.025443648985
1	10571	101.678600420965	0.037294463848
1	10578	101.715894884813	0.025008939748
1	10583	101.740903824561	0.0987634543
1	10588	101.839667278861	0.111395956051
1	10593	101.951063234912	0.035251961915
1	10598	101.986315196827	0.085799795703
1	10603	102.07211499253	0.014861593251
1	10608	102.086976585781	0.046821854552
1	10614	102.133798440333	0.011963770759
1	10619	102.145762211092	0.014135487463
1	10624	102.159897698555	0.049461661402
1	10629	102.209359359957	0.214380823599
1	10636	102.423740183556	0.109922745066
1	10641	102.533662928622	0.055097874255
1	10646	102.588760802877	0.009206157725
1	10651	102.597966960602	0.014809991106
1	10656	102.612776951708	0.045822208556
1	10661	102.658599160264	0.002066307864
1	10663	102.660665468128	0.055273071329
1	10671	102.715938539457	0.156068432871
1	10676	102.872006972328	0.120833831713
1	10681	102.992840804041	0.211689251929
1	10687	103.20453005597	0.018440102076
1	10693	103.222970158046	0.027944853399
1	10698	103.250915011445	0.032886504056
1	10703	103.283801515501	0.000304269927
1	10705	103.284105785428	0.000974044642
1	10707	103.28507983007	0.013987700585
1	10712	103.299067530655	0.213498083661
1	10725	103.512565614316	0.072117953348
1	10732	103.584683567664	0.072407991402
1	10738	103.657091559066	0.033265914329
[...]
19	21699	205.428677234585	2.4918330181891
19	22021	207.920510252774	1.9778162856766
19	22218	209.898326538451	3.9248670054503
19	22696	213.823193543901	2.383162960054
19	22993	216.206356503955	5.0308092967184
19	23523	221.237165800673	2.8796137783911
19	23859	224.116779579064	1.1143337182138
19	23964	225.231113297278	0.10023559890103
19	23973	225.331348896179	0.23182448431237
19	23992	225.563173380491	0.59148729343576
19	24054	226.154660673927	2.7386915122105
19	24345	228.893352186137	1.171180597916
19	24491	230.064532784053	0.080703614688691
19	24512	230.145236398742	0.3304138559055
19	24585	230.475650254648	0.13740361767849
19	24602	230.613053872326	0.80218412002211
19	24701	231.415237992348	1.8193043435166
19	24913	233.234542335865	1.5067487656846
19	25082	234.74129110155	1.6972600190337
19	25317	236.438551120584	4.0400996044487
19	25712	240.478650725033	2.6859877139777
19	25995	243.164638439011	1.1923551438081
19	26102	244.356993582819	2.3415380635775
19	26323	246.698531646397	1.4318512099335
19	26447	248.13038285633	1.5754130146778
19	26651	249.705795871008	1.6612473446013
19	26829	251.367043215609	0.76335600806611
19	26913	252.130399223675	6.3857071903758
19	27543	258.516106414051	2.7062250449058
19	27812	261.222331458957	0.022324581942724
19	27819	261.2446560409	0.93017876289668
19	27914	262.174834803797	0.60731933039247
19	27967	262.782154134189	0.6723574362372
19	28042	263.454511570426	5.4206303456549
19	28634	268.875141916081	0.38245789437186
19	28670	269.257599810453	0.68326522410868
19	28744	269.940865034562	1.7503109335798
19	28966	271.691175968142	0.77565667128076
19	29033	272.466832639423	1.6450028075418
19	29220	274.111835446965	0.91586801123537
19	29342	275.0277034582	1.6687336573054
19	29538	276.696437115505	0.18147414984145
19	29550	276.877911265346	0.99994721625248
19	29621	277.877858481598	1.8128768096164
19	29835	279.690735291214	7.6972749930542
19	30680	287.388010284268	0.27022003009347
19	30708	287.658230314361	0.54537908219897
19	30771	288.20360939656	1.4714640974332
19	30929	289.675073493993	0.38405100987715
19	30992	290.05912450387	3.8243611246586
19	31419	293.883485628529	0.51151845065091
19	31458	294.39500407918	0.33298431771224
19	31505	294.727988396892	0.62637997288289
19	31593	295.354368369775	3.0805589850113
19	31907	298.434927354786	3.4674768536172
19	32229	301.902404208403	1.2994965646023
19	32378	303.201900773005	0.41327917462171
19	32429	303.615179947627	5.3194058161789
19	33004	308.934585763806	4.4356230238694
19	33495	313.370208787675	1.6909865559362
19	33678	315.061195343611	2.9039681205685
19	33934	317.965163464179	5.2170061824713
19	34521	323.18216964665	1.6146673276908
19	34705	324.796836974341	0.10479177508959
19	34711	324.901628749431	0.13933059538783
19	34723	325.040959344819	1.6343784993446
19	34902	326.675337844164	1.5392043626025
19	35112	328.214542206766	2.6998875402194
19	35428	330.914429746985	2.9507821349896
19	35796	333.865211881975	2.2322542849984
19	35978	336.097466166973	2.6224107493379
19	36212	338.719876916311	0.38650289977391
19	36243	339.106379816085	1.7057346402271
19	36426	340.812114456312	1.8121115885949
19	36616	342.624226044907	1.231615601549
19	36722	343.855841646456	3.5787443273591
19	37149	347.434585973815	1.279612608204
19	37297	348.714198582019	2.468481285285
19	37545	351.182679867304	3.0181102222794
19	37930	354.200790089583	1.5593921623148
19	38064	355.760182251898	9.1310601646437
19	39076	364.891242416542	1.1985739756321
19	39253	366.089816392174	0.96613023313029
19	39373	367.055946625304	0.76642167946713
19	39465	367.822368304771	0.7888151664924
19	39532	368.611183471263	2.3164751969878
19	39793	370.927658668251	2.3845162248026
19	40083	373.312174893054	1.2549476715296
19	40209	374.567122564584	4.4859691833445
19	40627	379.053091747929	0.16191732699195
19	40644	379.215009074921	1.3546921755295
19	40818	380.56970125045	3.3584194736543
19	41203	383.928120724104	3.3449660993608
19	41590	387.273086823465	0.93060257746918
19	41678	388.203689400934	2.8173909248663
19	41969	391.0210803258	2.674848555532
19	42220	393.695928881332	6.142645469076
19	42921	399.838574350408	2.0077271159362
20	1344	13.787057966762	2.1770015619763
20	1589	15.964059528738	3.1649533463261
20	2015	19.129012875064	3.9352454379753
20	2409	23.064258313039	0.62134574626029
20	2463	23.685604059299	6.7629633457825
20	3190	30.448567405081	1.5508514909502
20	3327	31.999418896031	0.29998207667023
20	3365	32.299400972701	3.9602947516095
20	3762	36.25969572431	2.3571215012946
20	4062	38.616817225605	0.84704266590843
20	4149	39.463859891513	0.77182582886126
20	4198	40.235685720374	1.2014152228067
20	4294	41.437100943181	3.943765398508
20	4669	45.380866341689	2.8657271805847
20	4961	48.246593522274	1.1355047477484
20	5064	49.382098270022	0.73381400000054
20	5149	50.115912270023	0.28935110333991
20	5191	50.405263373363	0.40182517723886
20	5225	50.807088550602	1.1971120111933
20	5312	52.004200561795	2.4095916002954
20	5570	54.41379216209	0.18945677897737
20	5594	54.603248941067	0.36191114068101
20	5625	54.965160081748	2.0247327916064
20	5827	56.989892873354	1.0006414810406
20	5963	57.990534354395	0.3240057639144
20	5983	58.314540118309	1.9995536782036
20	6215	60.314093796513	2.5207455659756
20	6505	62.834839362489	0.23532312903818
20	6528	63.070162491527	4.5388837700134
20	7006	67.60904626154	1.6825669737958
20	7193	69.291613235336	4.3891483639213
20	7632	73.680761599257	0.99927522855548
20	7746	74.680036827812	2.5175164195878
20	7928	77.1975532474	1.1239869151211
20	8007	78.321540162521	1.3729169074456
20	8161	79.694457069967	2.8768922729565
20	8470	82.571349342924	2.5434059656663
20	8713	85.11475530859	2.8028727982622
20	9023	87.917628106852	1.4586743055831
20	9167	89.376302412435	0.94241002708956
20	9253	90.318712439525	0.36578981522272
20	9319	90.684502254748	0.13363271118718
20	9342	90.818134965935	2.034840407377
20	9550	92.852975373312	1.7438778162495
20	9736	94.596853189561	1.2071508139226
20	9876	95.804004003484	0.78087723848664
20	9933	96.584881241971	0.95398923699916
20	10013	97.53887047897	7.0527005546528
20	10873	104.591571033623	1.9376564327226
20	11098	106.529227466346	0.36247612338514
20	11152	106.891703589731	5.5367888987633
20	11772	112.428492488494	2.0525471950781
20	12018	114.481039683572	1.3013459774729
20	12194	115.782385661045	0.16215966300341
20	12224	115.944545324048	1.4977977355422
20	12351	117.44234305959	1.1075954145732
20	12462	118.549938474163	3.1779282029606
20	12781	121.727866677124	0.49103099069803
20	12827	122.218897667822	1.7828506300453
20	13050	124.001748297867	3.8557749467216
20	13509	127.857523244589	0.20678555540319
20	13533	128.064308799992	1.4656723305964
20	13667	129.529981130588	0.79186648210938
20	13732	130.321847612697	4.9319854537569
20	14317	135.253833066454	4.3276301679491
20	14792	139.581463234403	0.38244081771341
20	14888	139.963904052116	0.59960474780111
20	14929	140.563508799917	2.8028373997482
20	15184	143.366346199665	0.78199763159412
20	15254	144.148343831259	0.64142162796677
20	15323	144.789765459226	0.081754036153933
20	15331	144.87151949538	1.8868649113126
20	15529	146.758384406693	4.9378673836578
20	16046	151.696251790351	3.4600935311431
20	16454	155.156345321494	2.6024545198769
20	16661	157.758799841371	1.5667570077945
20	16824	159.325556849166	0.25298637666027
20	16833	159.578543225826	4.7645721441209
20	17338	164.343115369947	0.88242124115341
20	17443	165.2255366111	2.0969010227675
20	17677	167.322437633867	2.8750571086939
20	18064	170.197494742561	0.32081620082981
20	18092	170.518310943391	0.59847656597318
20	18167	171.116787509364	5.5639724138717
20	18714	176.680759923236	0.54990736623695
20	18765	177.230667289473	0.21612392873381
20	18796	177.446791218207	1.5191386815786
20	18962	178.965929899786	0.97274924333244
20	19061	179.938679143118	2.0833427012303
20	19284	182.022021844348	8.0800802740255
20	20128	190.102102118374	0.98111223224421
20	20216	191.083214350618	3.5997995686308
20	20537	194.683013919249	3.1882149999959
20	20902	197.871228919245	1.0032714638126
20	21004	198.874500383058	0.76971328518036
20	21052	199.644213668238	3.6717570153477
20	21424	203.315970683586	0.87285609494899
20	21531	204.188826778535	1.4189320696862
20	21710	205.607758848221	1.6632435834642
20	21951	207.271002431685	0.5410046855599
20	22009	207.812007117245	0.070620686152349
20	22015	207.882627803397	0.10569052244904
20	22039	207.988318325846	1.3625561715711
20	22164	209.350874497417	1.7602746250732
20	22335	211.11114912249	2.7556054099084
20	22697	213.866754532398	0.76516355999511
20	22791	214.631918092393	0.25483094956378
20	22824	214.886749041957	1.0562274217535
20	22957	215.94297646371	0.55312690974124
20	23006	216.496103373451	0.61057761088211
20	23055	217.106680984333	0.91249145315213
20	23163	218.019172437485	0.00058363930282519
20	23164	218.019756076788	0.57674848107037
20	23223	218.596504557858	4.2407729160013
20	23690	222.837277473859	1.7407327170408
20	23897	224.5780101909	2.509592588478
20	24155	227.087602779378	0.65246585805883
20	24207	227.740068637437	0.35147116548892
20	24245	228.091539802926	1.3305893164772
20	24417	229.422129119403	0.42545799885231
20	24458	229.847587118255	2.4718204494942
20	24817	232.319407567749	7.8755579849152
20	25685	240.194965552664	1.9799713743949
20	25897	242.174936927059	1.5637701590978
20	26048	243.738707086157	2.3454155047564
20	26246	246.084122590913	2.0754279259371
20	26450	248.15955051685	1.1370814657027
20	26603	249.296631982553	0.64663113242537
20	26663	249.943263114978	0.52131184543547
20	26744	250.464574960413	0.5460912092248
20	26791	251.010666169638	5.4278488377012
20	27338	256.438515007339	0.7888068194419
20	27421	257.227321826781	0.38658973097662
20	27443	257.613911557758	0.616273850377
20	27512	258.230185408135	6.6117318493306
20	28219	264.841917257466	0.67685307908981
20	28279	265.518770336556	0.92545943942468
20	28396	266.444229775981	15.420198482762
20	30039	281.864428258743	2.4529462424088
20	30330	284.317374501152	7.8868014038673
20	31264	292.204175905019	5.5572504246007
20	31838	297.76142632962	0.61715975298347
20	31899	298.378586082603	1.3053992011247
20	32019	299.683985283728	1.6334760806497
20	32193	301.317461364378	0.099150346168845
20	32209	301.416611710547	7.8795945864002
20	33044	309.296206296947	1.0013382217799
20	33143	310.297544518727	0.13815148198611
20	33149	310.435696000713	4.2107002258647
20	33656	314.646396226578	2.9329327701702
20	33877	317.579328996748	0.26216225348811
20	33913	317.841491250236	0.77339504460813
20	34004	318.614886294844	0.50841554298949
20	34073	319.123301837833	4.4578890687353
20	34577	323.581190906568	3.1155255236066
20	34905	326.696716430175	0.20848021668138
20	34935	326.905196646856	1.6446749572063
20	35140	328.549871604062	2.1632989940697
20	35394	330.713170598132	4.2884731927217
20	35874	335.001643790854	1.5490077029603
20	36045	336.550651493814	2.6131658351287
20	36244	339.163817328943	2.1023757834802
20	36452	341.266193112423	1.1327554377406
20	36561	342.398948550164	0.12913649084454
20	36592	342.528085041009	1.3359613942651
20	36723	343.864046435274	2.0425016178534
20	36939	345.906548053127	1.6777173009877
20	37156	347.584265354115	2.0510188644336
20	37390	349.635284218549	0.52772416403078
20	37439	350.16300838258	2.4953856636173
20	37713	352.658394046197	6.3192700861952
20	38452	358.977664132392	2.9492343570101
20	38720	361.926898489402	0.39481270446802
20	38763	362.32171119387	0.029802483788692
20	38769	362.351513677659	2.522234931607
20	39075	364.873748609266	0.13555285267276
20	39084	365.009301461939	4.0436066570141
20	39582	369.052908118953	1.2717861582391
20	39727	370.324694277192	6.1349422339753
20	40377	376.459636511167	0.75127912700356
20	40450	377.210915638171	0.10539976068033
20	40462	377.316315398851	2.7413309642111
20	40764	380.057646363062	0.89332858742281
20	40849	380.950974950485	5.8407243227201
20	41518	386.791699273205	1.9068309214709
20	41718	388.698530194676	0.38577542683859
20	41764	389.084305621515	2.4201776180745
20	42012	391.50448323959	0.28203179518551
20	42043	391.786515034776	3.1785526845426
20	42377	394.965067719319	1.0724997856501
20	42499	396.037567504969	0.86600415127651
20	42601	396.903571656246	2.5742409012892
20	42895	399.477812557535	3.3472026052747
21	1506	15.362930191164	1.2584475401949
21	1657	16.621377731359	1.8408485711553
21	1933	18.462226302514	0.42095474926563
21	1993	18.88318105178	0.83482311620494
21	2072	19.718004167985	1.4148026174536
21	2193	21.132806785439	1.3423983340543
21	2369	22.475205119493	11.223053193685
21	3460	33.698258313178	1.8314364061615
21	3655	35.52969471934	12.259440202373
21	4926	47.789134921713	0.60069777812194
21	4985	48.389832699835	0.64684499874914
21	5011	49.036677698584	1.0546060078733
21	5138	50.091283706457	0.12812077730615
21	5172	50.219404483763	2.3941458110245
21	5361	52.613550294788	2.4418596294228
21	5632	55.055409924211	1.3801745610348
21	5764	56.435584485246	1.4187069625111
21	5950	57.854291447757	1.6296147370934
21	6088	59.48390618485	0.51226590387007
21	6155	59.99617208872	0.87628593546403
21	6272	60.872458024184	1.3476041110186
21	6436	62.220062135203	0.69338755714879
21	6516	62.913449692352	0.19970874516689
21	6529	63.113158437519	3.8394455016212
21	6949	66.95260393914	2.1238600428878
21	7177	69.076463982028	4.7035757457853
21	7634	73.780039727813	2.3928343565069
21	7826	76.17287408432	0.01752373885071
21	7827	76.190397823171	0.99889893550089
21	7927	77.189296758672	0.041558063627787
21	7929	77.2308548223	0.41279312652227
21	7955	77.643647948822	5.3031164148727
21	8499	82.946764363695	0.091209070638177
21	8511	83.037973434333	0.58909693939953
21	8579	83.627070373733	5.5920782733091
21	9154	89.219148647042	1.6786833134533
21	9343	90.897831960495	7.9519182052345
21	10175	98.84975016573	1.3177619043655
21	10349	100.167512070095	0.090582976806616
21	10367	100.258095046902	0.8710748775602
21	10495	101.129169924462	2.7490827988945
21	10768	103.878252723357	13.572474019972
21	12352	117.450726743329	1.3127490621922
21	12475	118.763475805521	1.7587729644677
21	12629	120.522248769989	1.1848608076507
21	12775	121.70710957764	0.85885889126377
21	12886	122.565968468904	0.11299091580629
21	12888	122.67895938471	0.74307576998985
21	12978	123.4220351547	0.50403176428514
21	13037	123.926066918985	3.40341853445
21	13453	127.329485453435	4.0255348012855
21	13844	131.355020254721	1.973819916027
21	14134	133.328840170748	1.850485717268
21	14305	135.179325888016	0.46073104925252
21	14350	135.640056937269	0.098850933408857
21	14363	135.738907870678	2.7627053059227
21	14699	138.501613176601	0.17955509982631
21	14717	138.681168276427	1.2275650460111
21	14879	139.908733322438	6.4957769102648
21	15505	146.404510232703	0.12282846252845
21	15511	146.527338695231	1.3389185218794
21	15621	147.86625721711	0.97550129623552
21	15713	148.841758513346	8.2172671201632
21	16582	157.059025633509	1.8371869129647
21	16771	158.896212546474	2.377889678626
21	17037	161.2741022251	1.6762356617594
21	17212	162.950337886859	3.258135352113
21	17537	166.208473238972	1.9074308218045
21	17750	168.115904060777	0.72142978297196
21	17840	168.837333843749	0.11693671256602
21	17871	168.954270556315	0.43185167878285
21	17928	169.386122235098	1.3035099201282
21	18116	170.689632155226	5.5081440017356
21	18674	176.197776156962	2.3394874798688
21	18909	178.537263636831	0.53415853092183
21	18978	179.071422167753	0.10484029762631
21	18981	179.176262465379	1.0065611584009
21	19091	180.18282362378	0.36366659227106
21	19127	180.546490216051	6.4165342543416
21	19773	186.963024470393	0.58880401731119
21	19837	187.551828487704	0.1103410857506
21	19844	187.662169573455	3.5691985413536
21	20229	191.231368114809	2.1425081639364
21	20396	193.373876278745	1.6081237657781
21	20584	194.982000044523	0.66518581427459
21	20663	195.647185858798	1.7771703714859
21	20845	197.424356230284	10.826776435776
21	22071	208.25113266606	1.3464230864117
21	22190	209.597555752472	2.3377638031092
21	22417	211.935319555581	0.14171417526394
21	22441	212.077033730845	0.34472353015202
21	22519	212.421757260997	1.613029089479
21	22721	214.034786350476	2.583038561429
21	23017	216.617824911905	8.2895993839637
21	23931	224.907424295869	0.5930152783851
21	23988	225.500439574254	3.2351872363784
21	24326	228.735626810632	0.034204983200259
21	24337	228.769831793832	1.0736054945895
21	24457	229.843437288422	3.9676185967799
21	24977	233.811055885202	2.6100539737864
21	25309	236.421109858988	1.1578941842907
21	25416	237.579004043279	2.5005515522567
21	25679	240.079555595536	1.1680898380038
21	25769	241.24764543354	0.10699669843893
21	25780	241.354642131979	1.1580049207018
21	25939	242.512647052681	0.092472861699623
21	25940	242.605119914381	2.5297188298149
21	26141	245.134838744196	0.4008665494632
21	26181	245.535705293659	0.24812081558892
21	26199	245.783826109248	1.9139177879261
21	26396	247.697743897174	3.5518369116127
21	26813	251.249580808787	9.3269578765651
21	27755	260.576538685352	0.26056607844535
21	27772	260.837104763797	0.63409835614365
21	27847	261.471203119941	1.5839004740493
21	28002	263.05510359399	1.3723361996397
21	28177	264.42743979363	0.2526624169926
21	28198	264.680102210623	0.35617913109889
21	28222	265.036281341722	6.0686613471441
21	28908	271.104942688866	2.9928666772812
21	29217	274.097809366147	2.792339265671
21	29551	276.890148631818	0.18671409837834
21	29574	277.076862730196	2.8613064316756
21	29852	279.938169161872	1.6032101162358
21	30022	281.541379278108	1.8891728889162
21	30226	283.430552167024	0.013516919936066
21	30230	283.44406908696	2.8647954276746
21	30563	286.308864514635	2.6902468363084
21	30849	288.999111350943	0.34057765944436
21	30897	289.339689010387	0.43931332488271
21	30940	289.77900233527	0.32977010506718
21	30998	290.108772440337	3.4655031471865
21	31402	293.574275587523	1.0063782295492
21	31481	294.580653817072	0.11558090141495
21	31494	294.696234718487	2.5478440614475
21	31795	297.244078779935	2.9038424505582
21	32082	300.147921230493	1.9714496417946
21	32264	302.119370872288	3.2729502085055
21	32616	305.392321080794	1.1922335451697
21	32713	306.584554625964	1.4627737934592
21	32884	308.047328419423	0.0044237125712306
21	32889	308.051752131994	1.1850678516655
21	33038	309.23681998366	3.4684194984686
21	33434	312.705239482129	0.06735102181097
21	33435	312.77259050394	1.4178613056985
21	33587	314.190451809638	1.5663820991842
21	33739	315.756833908822	0.42864683558251
21	33776	316.185480744405	0.31934909894493
21	33804	316.50482984335	3.9578008013975
21	34223	320.462630644748	1.9186673330194
21	34427	322.381297977767	0.15763020458282
21	34454	322.53892818235	0.30635528495303
21	34475	322.845283467303	0.47618849759337
21	34532	323.321471964896	6.6271055048658
21	35307	329.948577469762	2.1998878825704
21	35596	332.148465352332	5.8632117506619
21	36131	338.011677102994	1.4331688032559
21	36283	339.44484590625	3.1808875189567
21	36617	342.625733425207	1.2784355699409
21	36725	343.904168995148	2.1574053815067
21	36950	346.061574376655	0.44232759620592
21	37004	346.503901972861	0.35988230806334
21	37042	346.863784280924	4.4648331750834
21	37554	351.328617456007	0.17086209654993
21	37573	351.499479552557	0.040574467793671
21	37581	351.540054020351	0.32411115553773
21	37632	351.864165175889	0.10645314911318
21	37643	351.970618325002	10.27024456486
21	38754	362.240862889862	0.43336605745032
21	38802	362.674228947312	0.96262973428357
21	38947	363.636858681596	3.9653800667394
21	39445	367.602238748335	1.0473857090931
21	39538	368.649624457428	0.94810668202324
21	39624	369.597731139451	0.39815030099681
21	39663	369.995881440448	2.9203547869029
21	40023	372.916236227351	1.5406952671544
21	40197	374.456931494505	8.3039685454268
21	41063	382.760900039932	1.8366415563556
21	41299	384.597541596288	0.19714362424606
21	41320	384.794685220534	2.2468679894592
21	41557	387.041553209993	3.2693420517052
21	41896	390.310895261698	3.1532682025779
21	42194	393.464163464276	0.36273217187307
21	42224	393.826895636149	0.26975065529189
21	42266	394.096646291441	0.51612280442696
21	42327	394.612769095868	7.6954134112156

