version 2
run Nonmonitoring-exponential-500-20210224-17:49:29-27037
attr configname Nonmonitoring-exponential
attr datetime 20210224-17:49:29
attr experiment Nonmonitoring-exponential
attr inifile aerocom.ini
attr iterationvars $0=50
attr iterationvarsf 50-
attr measurement $0=50
attr network Aerocom
attr processid 27037
attr repetition 0
attr replication #0
attr resultdir results
attr runnumber 500
attr seedset 0
param **.t 2s
param **.k 50ms
param **.X 0.05s
param **.m 1s
param **.tDistribution "\"exponential\""
param **.operationMode 1
param **.s "70 byte"
param **.dimPoolMax 10000
param **.dimPoolMin 8000
param **.nDL 16
param **.nA 1
param **.DLMaxCapacity 0
param **.trasmitting false

vector 0 Aerocom.aircraft[0].packetGenerator arrivalTime:vector ETV
attr "" ""
attr source computeArrivalTime
vector 1 Aerocom.aircraft[0].linkSelector waitingTime:vector ETV
attr "" ""
attr source computeWaitingTime
vector 2 Aerocom.aircraft[0].linkSelector queueLength:vector ETV
attr "" ""
attr source computeQueueLength
vector 3 Aerocom.aircraft[0].dataLink[14] actualCapacity:vector ETV
attr "" ""
attr source computeActualCapacity
vector 4 Aerocom.aircraft[0].linkSelector serviceTime:vector ETV
attr "" ""
attr source computeServiceTime
vector 5 Aerocom.aircraft[0].linkSelector responseTime:vector ETV
attr "" ""
attr source computeResponseTime
vector 6 Aerocom.aircraft[0].dataLink[9] tDistribution:vector ETV
attr "" ""
attr source computeTDistribution
vector 7 Aerocom.aircraft[0].dataLink[10] tDistribution:vector ETV
attr "" ""
attr source computeTDistribution
vector 8 Aerocom.aircraft[0].dataLink[2] tDistribution:vector ETV
attr "" ""
attr source computeTDistribution
vector 9 Aerocom.aircraft[0].dataLink[6] tDistribution:vector ETV
attr "" ""
attr source computeTDistribution
vector 10 Aerocom.aircraft[0].dataLink[0] tDistribution:vector ETV
attr "" ""
attr source computeTDistribution
vector 11 Aerocom.aircraft[0].dataLink[13] tDistribution:vector ETV
attr "" ""
attr source computeTDistribution
vector 12 Aerocom.aircraft[0].dataLink[15] tDistribution:vector ETV
attr "" ""
attr source computeTDistribution
vector 13 Aerocom.aircraft[0].dataLink[12] tDistribution:vector ETV
attr "" ""
attr source computeTDistribution
vector 14 Aerocom.aircraft[0].dataLink[14] tDistribution:vector ETV
attr "" ""
attr source computeTDistribution
vector 15 Aerocom.aircraft[0].dataLink[4] tDistribution:vector ETV
attr "" ""
attr source computeTDistribution
vector 16 Aerocom.aircraft[0].dataLink[5] tDistribution:vector ETV
attr "" ""
attr source computeTDistribution
vector 17 Aerocom.aircraft[0].dataLink[8] tDistribution:vector ETV
attr "" ""
attr source computeTDistribution
vector 18 Aerocom.aircraft[0].dataLink[1] tDistribution:vector ETV
attr "" ""
attr source computeTDistribution
vector 19 Aerocom.aircraft[0].dataLink[11] tDistribution:vector ETV
attr "" ""
attr source computeTDistribution
vector 20 Aerocom.aircraft[0].dataLink[3] tDistribution:vector ETV
attr "" ""
attr source computeTDistribution
vector 21 Aerocom.aircraft[0].dataLink[7] tDistribution:vector ETV
attr "" ""
attr source computeTDistribution
0	1095	10.005245567619	0.042154151607
0	1101	10.047399719226	0.015736083043
0	1106	10.063135802269	0.060825432672
0	1112	10.123961234941	0.066437893688
0	1118	10.190399128629	0.017017336912
0	1123	10.207416465541	0.163757158886
0	1129	10.371173624427	0.028395207674
0	1134	10.399568832101	0.014301048625
0	1139	10.413869880726	0.070551220465
0	1144	10.484421101191	0.042919648391
0	1149	10.527340749582	0.025217190329
0	1154	10.552557939911	0.044829543539
0	1160	10.59738748345	0.113186678793
0	1165	10.710574162243	0.042461040578
0	1170	10.753035202821	0.050932936501
0	1175	10.803968139322	0.012620999645
0	1181	10.816589138967	0.111075344924
0	1186	10.927664483891	0.152614082844
0	1193	11.080278566735	0.056980398177
0	1200	11.137258964912	0.029631201373
0	1207	11.166890166285	0.029818969716
0	1212	11.196709136001	0.093672993993
0	1217	11.290382129994	0.192150329162
0	1222	11.482532459156	0.060111928362
0	1227	11.542644387518	0.006176332368
0	1229	11.548820719886	0.017651006664
0	1237	11.56647172655	0.072840927928
0	1242	11.639312654478	0.084046110227
0	1247	11.723358764705	0.026536124831
0	1252	11.749894889536	0.025250937388
0	1258	11.775145826924	0.056264100842
0	1263	11.831409927766	0.106474969803
0	1268	11.937884897569	0.014370523804
0	1274	11.952255421373	0.043526791316
0	1279	11.995782212689	0.01878694212
0	1284	12.014569154809	0.106741522499
0	1289	12.121310677308	0.168218522653
0	1295	12.289529199961	0.058969146682
0	1300	12.348498346643	0.044393070522
0	1305	12.392891417165	0.06459546344
0	1310	12.457486880605	0.053891744207
0	1315	12.511378624812	0.034789973045
0	1320	12.546168597857	0.038093388565
0	1326	12.584261986422	0.156273417883
0	1332	12.740535404305	0.013102862084
0	1337	12.753638266389	0.051639850532
0	1342	12.805278116921	0.025115539913
0	1347	12.830393656834	0.027569799507
0	1352	12.857963456341	0.048222678275
0	1357	12.906186134616	0.04662014402
0	1363	12.952806278636	0.032205235416
0	1368	12.985011514052	0.000968989067
0	1370	12.985980503119	0.031756385782
0	1379	13.017736888901	0.017946360793
0	1384	13.035683249694	0.062952175863
0	1389	13.098635425557	0.053966009933
0	1394	13.15260143549	0.016983236629
0	1399	13.169584672119	0.017129981235
0	1404	13.186714653354	0.024181784329
0	1409	13.210896437683	0.048118752789
0	1414	13.259015190472	0.069148960327
0	1420	13.328164150799	0.027998053504
0	1425	13.356162204303	0.105372380248
0	1431	13.461534584551	0.007278698922
0	1433	13.468813283473	0.005427354925
0	1438	13.474240638398	0.017711206612
0	1446	13.49195184501	0.004846137729
0	1448	13.496797982739	0.04219442363
0	1456	13.538992406369	0.021851400689
0	1461	13.560843807058	0.044686453915
0	1466	13.605530260973	0.040127599288
0	1471	13.645657860261	0.042703986782
0	1476	13.688361847043	0.001710170918
0	1478	13.690072017961	0.052950469269
0	1486	13.74302248723	0.173626773964
0	1491	13.916649261194	0.052792480433
0	1496	13.969441741627	0.019356504607
0	1501	13.988798246234	0.028230525056
0	1506	14.01702877129	0.012504074749
0	1511	14.029532846039	0.113431699635
0	1518	14.142964545674	0.007614681263
0	1520	14.150579226937	0.022908644198
0	1528	14.173487871135	0.005116030743
0	1530	14.178603901878	0.028623077571
0	1538	14.207226979449	0.206890488026
0	1545	14.414117467475	0.111245732861
0	1550	14.525363200336	0.015078295661
0	1555	14.540441495997	0.082044878896
0	1560	14.622486374893	0.038503842977
0	1565	14.66099021787	0.060850974767
0	1571	14.721841192637	0.029703674916
0	1576	14.751544867553	0.005280632181
0	1578	14.756825499734	0.00524409178
0	1583	14.762069591514	0.125964106504
0	1591	14.888033698018	0.021717282797
0	1597	14.909750980815	0.062630376246
0	1602	14.972381357061	0.031673130886
0	1609	15.004054487947	0.338269525997
0	1619	15.342324013944	0.091986639254
0	1625	15.434310653198	0.008093504336
0	1630	15.442404157534	0.117508864488
0	1635	15.559913022022	0.101295440855
0	1642	15.661208462877	0.001914145644
0	1644	15.663122608521	0.008866278757
0	1649	15.671988887278	0.035495896361
0	1657	15.707484783639	0.047798321196
0	1662	15.755283104835	0.009126930094
0	1667	15.764410034929	0.006609185481
0	1669	15.77101922041	0.07549117278
0	1677	15.84651039319	0.094196444329
0	1682	15.940706837519	0.100099324776
0	1687	16.040806162295	0.082335955066
0	1692	16.123142117361	0.026500143907
0	1697	16.149642261268	0.042094048087
0	1703	16.191736309355	0.00753955051
0	1705	16.199275859865	0.026143501504
0	1715	16.225419361369	0.001689339278
0	1717	16.227108700647	0.003583769216
0	1719	16.230692469863	0.20249234194
0	1730	16.433184811803	0.059771928314
0	1736	16.492956740117	0.02336362832
0	1741	16.516320368437	0.030214953592
0	1746	16.546535322029	0.027242856407
0	1752	16.573778178436	0.064016710191
0	1757	16.637794888627	0.002595627609
0	1759	16.640390516236	0.10063863681
0	1767	16.741029153046	0.02274559224
0	1772	16.763774745286	0.185498029595
0	1780	16.949272774881	0.0008383883
0	1782	16.950111163181	0.096828861875
0	1790	17.046940025056	0.013116465458
0	1795	17.060056490514	0.000589161596
0	1797	17.06064565211	0.072389704099
0	1805	17.133035356209	0.022312641026
0	1810	17.155347997235	0.144230587605
0	1819	17.29957858484	0.065464918201
0	1824	17.365043503041	0.069314567601
0	1829	17.434358070642	0.009414748761
0	1834	17.443772819403	0.020730627133
0	1839	17.464503446536	0.036806554999
0	1845	17.501310001535	0.033623025842
0	1850	17.534933027377	0.002793502644
0	1852	17.537726530021	0.020698946134
0	1860	17.558425476155	0.011156960405
0	1865	17.56958243656	0.009891475373
0	1871	17.579473911933	0.000934773521
0	1873	17.580408685454	0.00937594756
0	1878	17.589784633014	0.078920636105
0	1886	17.668705269119	0.031129867199
0	1891	17.699835136318	0.012675285257
0	1896	17.712510421575	0.103801553022
0	1902	17.816311974597	0.021182855068
0	1907	17.837494829665	0.14422721442
0	1914	17.981722044085	0.131610943127
0	1920	18.113332987212	0.046856935886
0	1926	18.160189923098	0.060939840167
0	1933	18.221129763265	0.045398201366
0	1938	18.266527964631	0.001617840232
0	1940	18.268145804863	0.076541561313
0	1948	18.344687366176	0.008997867078
0	1953	18.353685233254	0.034659988477
0	1958	18.388345221731	0.048574107905
0	1963	18.436919329636	0.00258414529
0	1965	18.439503474926	0.043046181834
0	1973	18.48254965676	0.060048545327
0	1978	18.542598202087	0.013583403517
0	1983	18.556181605604	0.2439566444
0	1989	18.800138250004	0.136067412796
0	1994	18.9362056628	0.015548390248
0	1999	18.951754053048	0.047591485377
0	2004	18.999345538425	0.056829824763
0	2010	19.056175363188	0.038353982729
0	2015	19.094529345917	0.099858598374
0	2020	19.194387944291	0.044568928846
0	2025	19.238956873137	0.069483853189
0	2030	19.308440726326	0.065489268568
0	2035	19.373929994894	0.166896716693
0	2041	19.540826711587	0.018694324795
0	2046	19.559521036382	0.04039900267
0	2052	19.599920039052	0.025393256134
0	2058	19.625313295186	0.011937643642
0	2064	19.637250938828	0.011776228671
0	2070	19.649027167499	0.012579930656
0	2075	19.661607098155	0.010301602424
0	2080	19.671908700579	0.01234296344
0	2085	19.684251664019	0.144453779595
0	2092	19.828705443614	0.042148938771
0	2097	19.870854382385	0.067267371662
0	2102	19.938121754047	0.030083949326
0	2107	19.968205703373	0.033712228482
0	2112	20.001917931855	0.175723934027
0	2118	20.177641865882	0.012900638197
0	2123	20.190542504079	0.057056895143
0	2128	20.247599399222	0.014675382596
0	2133	20.262274781818	0.0044577145
0	2135	20.266732496318	0.002989048146
0	2137	20.269721544464	0.002903618106
0	2142	20.27262516257	0.028494878265
0	2153	20.301120040835	0.033455686184
0	2158	20.334575727019	0.01868348972
0	2163	20.353259216739	0.106433504727
0	2171	20.459692721466	0.059592905183
0	2177	20.519285626649	0.187334730691
0	2184	20.70662035734	0.023720814517
0	2189	20.730341171857	0.048071978579
0	2194	20.778413150436	0.009898386767
0	2200	20.788311537203	0.039098786044
0	2206	20.827410323247	0.001249417666
0	2208	20.828659740913	0.096418006844
0	2217	20.925077747757	0.003480883554
0	2219	20.928558631311	0.068096586215
0	2227	20.996655217526	0.056876925277
0	2232	21.053532142803	0.032561536596
0	2237	21.086093679399	0.030229060917
0	2242	21.116322740316	0.056517777296
0	2247	21.172840517612	0.038455990055
0	2252	21.211296507667	0.04670301663
0	2258	21.257999524297	0.113492000789
0	2264	21.371491525086	0.062710163505
0	2271	21.434201688591	0.231982626319
0	2277	21.66618431491	0.03169650097
0	2282	21.69788081588	0.012224551102
0	2287	21.710105366982	0.030441645687
0	2292	21.740547012669	0.054395221681
0	2298	21.79494223435	0.118445908542
0	2304	21.913388142892	0.015280245091
0	2309	21.928668387983	0.007379801645
0	2311	21.936048189628	0.001043360931
0	2313	21.937091550559	0.013017570577
0	2321	21.950109121136	0.071019172779
0	2331	22.021128293915	0.106678164374
0	2337	22.127806458289	0.019284384702
0	2342	22.147090842991	0.117392188071
0	2348	22.264483031062	0.024181919374
0	2353	22.288664950436	0.051892503774
0	2358	22.34055745421	0.044375096424
0	2363	22.384932550634	0.019628651409
0	2368	22.404561202043	0.088907166842
0	2373	22.493468368885	0.036668383658
0	2378	22.530136752543	0.049575214645
0	2383	22.579711967188	2.767595e-06
0	2385	22.579714734783	0.103041062044
0	2393	22.682755796827	0.018688164691
0	2398	22.701443961518	0.015978732744
0	2403	22.717422694262	0.027708541452
0	2408	22.745131235714	0.079985972092
0	2413	22.825117207806	0.108288184044
0	2420	22.93340539185	0.010267388437
0	2425	22.943672780287	0.056952882534
0	2430	23.000625662821	0.15265923348
0	2437	23.153284896301	0.030452230635
0	2442	23.183737126936	0.058155664171
0	2447	23.241892791107	0.033025153987
0	2453	23.274917945094	0.012135924684
0	2458	23.287053869778	0.07773314689
0	2463	23.364787016668	0.147224013871
0	2469	23.512011030539	0.013032006469
0	2474	23.525043037008	0.065625399648
0	2480	23.590668436656	0.106137332697
0	2485	23.696805769353	0.014647572924
0	2490	23.711453342277	0.018821467576
0	2495	23.730274809853	0.011996175972
0	2500	23.742270985825	0.157854777071
0	2507	23.900125762896	0.036511383262
0	2512	23.936637146158	0.03190943028
0	2517	23.968546576438	0.00129988726
0	2519	23.969846463698	0.062167538897
0	2528	24.032014002595	0.011626250919
0	2533	24.043640253514	0.008343732062
0	2538	24.051983985576	0.027641918533
0	2543	24.079625904109	0.065548618408
0	2548	24.145174522517	0.023433823799
0	2553	24.168608346316	0.051960281829
0	2559	24.220568628145	0.031141465488
0	2564	24.251710093633	0.012095982239
0	2569	24.263806075872	0.016260800899
0	2574	24.280066876771	0.01031789968
0	2579	24.290384776451	0.044189282802
0	2584	24.334574059253	0.082403808658
0	2589	24.416977867911	0.099701960064
0	2596	24.516679827975	0.06873399769
0	2601	24.585413825665	0.006251629496
0	2603	24.591665455161	0.056173024977
0	2612	24.647838480138	0.036426192137
0	2617	24.684264672275	0.016209955674
0	2622	24.700474627949	0.00708210174
0	2624	24.707556729689	0.009613072042
0	2632	24.717169801731	0.063090633674
0	2637	24.780260435405	0.060949967259
0	2642	24.841210402664	0.025213996663
0	2647	24.866424399327	0.031101845954
0	2653	24.897526245281	0.041668912032
0	2658	24.939195157313	0.091763170147
0	2663	25.03095832746	0.010122938185
0	2668	25.041081265645	0.01146221626
0	2673	25.052543481905	0.007823788519
0	2678	25.060367270424	0.009013714979
0	2683	25.069380985403	0.033477029543
0	2689	25.102858014946	0.006667031164
0	2691	25.10952504611	0.021972769525
0	2701	25.131497815635	0.064021217699
0	2706	25.195519033334	0.141031797421
0	2712	25.336550830755	0.001546314578
0	2714	25.338097145333	0.072477738821
0	2722	25.410574884154	0.068717150721
0	2727	25.479292034875	0.069048154783
0	2732	25.548340189658	0.004858383918
0	2734	25.553198573576	0.117024598033
0	2744	25.670223171609	0.012259904632
0	2749	25.682483076241	0.004355429163
0	2751	25.686838505404	0.069165823308
0	2759	25.756004328712	0.040169588133
0	2764	25.796173916845	0.065781312915
0	2769	25.86195522976	0.043910753936
0	2774	25.905865983696	0.002334387182
0	2776	25.908200370878	0.163424820041
0	2785	26.071625190919	0.011732792463
0	2790	26.083357983382	0.017275979185
0	2795	26.100633962567	0.016907735742
0	2801	26.117541698309	0.013776396852
0	2806	26.131318095161	0.056545923959
0	2811	26.18786401912	0.005284358705
0	2813	26.193148377825	0.003255643239
0	2818	26.196404021064	0.000828304721
0	2820	26.197232325785	0.040557051111
0	2831	26.237789376896	0.132627925776
0	2838	26.370417302672	0.000464151219
0	2840	26.370881453891	0.055420487711
0	2848	26.426301941602	0.089499480224
0	2854	26.515801421826	0.076891435724
0	2859	26.59269285755	0.207798554778
0	2864	26.800491412328	0.016545494059
0	2869	26.817036906387	0.060784523668
0	2875	26.877821430055	0.044144027248
0	2880	26.921965457303	0.010022109754
0	2885	26.931987567057	0.003304600535
0	2887	26.935292167592	0.035912324005
0	2896	26.971204491597	0.033240387478
0	2902	27.004444879075	0.043428286573
0	2907	27.047873165648	0.189701189154
0	2912	27.237574354802	0.077450583958
0	2918	27.31502493876	0.104577828631
0	2925	27.419602767391	0.046630592763
0	2930	27.466233360154	0.020636493336
0	2935	27.48686985349	0.012320791111
0	2940	27.499190644601	0.162946048859
0	2947	27.66213669346	0.030363964431
0	2954	27.692500657891	0.013178855642
0	2959	27.705679513533	0.105544438719
0	2964	27.811223952252	0.149110033774
0	2971	27.960333986026	0.033890100103
0	2976	27.994224086129	0.141832009669
0	2982	28.136056095798	0.062861849779
0	2987	28.198917945577	0.080272938153
0	2992	28.27919088373	0.033292124332
0	2997	28.312483008062	0.049773182168
0	3002	28.36225619023	0.061644023152
0	3007	28.423900213382	0.103688073155
0	3013	28.527588286537	0.034471726892
0	3018	28.562060013429	0.017337665189
0	3023	28.579397678618	0.093071582149
0	3028	28.672469260767	0.094505084905
0	3033	28.766974345672	0.01080481083
0	3038	28.777779156502	0.04810059633
0	3043	28.825879752832	0.074212124133
0	3048	28.900091876965	0.000666262241
0	3050	28.900758139206	0.182982866538
0	3060	29.083741005744	0.021326790602
0	3065	29.105067796346	0.09913744523
0	3071	29.204205241576	0.008016704724
0	3076	29.2122219463	0.075803446491
0	3081	29.288025392791	0.200397482744
0	3087	29.488422875535	0.210092971312
0	3092	29.698515846847	0.032539867118
0	3097	29.731055713965	0.070033784848
0	3102	29.801089498813	0.034397173923
0	3108	29.835486672736	0.000202816066
0	3110	29.835689488802	0.051009354398
0	3118	29.8866988432	0.015699894903
0	3123	29.902398738103	0.022989565889
0	3128	29.925388303992	0.026423361415
0	3133	29.951811665407	0.007361251866
0	3135	29.959172917273	0.0279503835
0	3143	29.987123300773	0.086331668987
0	3149	30.07345496976	0.017679828763
0	3154	30.091134798523	0.01052666441
0	3159	30.101661462933	0.025635732131
0	3164	30.127297195064	0.0358022659
0	3169	30.163099460964	0.006429011864
0	3171	30.169528472828	0.012700568918
0	3179	30.182229041746	0.197381663378
0	3187	30.379610705124	0.005148418186
0	3189	30.38475912331	0.026053941054
0	3197	30.410813064364	0.099094517055
0	3203	30.509907581419	0.042106815142
0	3209	30.552014396561	0.180447050249
0	3215	30.73246144681	0.021049664902
0	3220	30.753511111712	0.161998148345
0	3226	30.915509260057	0.077764718018
0	3234	30.993273978075	0.118519379031
0	3242	31.111793357106	0.026498078964
0	3248	31.13829143607	0.074371487717
0	3254	31.212662923787	0.02225746697
0	3259	31.234920390757	0.020259144117
0	3264	31.255179534874	0.025499541692
0	3269	31.280679076566	0.004228974588
0	3271	31.284908051154	0.017964695256
0	3279	31.30287274641	0.026148382683
0	3285	31.329021129093	0.07463160821
0	3290	31.403652737303	0.013213523207
0	3296	31.41686626051	0.130328590116
0	3302	31.547194850626	0.00710627557
0	3304	31.554301126196	0.019675120556
0	3312	31.573976246752	0.002745368628
0	3314	31.57672161538	0.15274298895
0	3324	31.72946460433	0.06465739294
0	3331	31.79412199727	0.000702329562
0	3333	31.794824326832	0.00057466251
0	3335	31.795398989342	0.038121184211
0	3347	31.833520173553	0.0736102079
0	3353	31.907130381453	0.018162110945
0	3358	31.925292492398	0.007946658983
0	3360	31.933239151381	0.107219273226
0	3369	32.040458424607	0.004143113646
0	3371	32.044601538253	0.014425635517
0	3379	32.05902717377	0.004693727364
0	3381	32.063720901134	0.05656893838
0	3390	32.120289839514	0.055744371095
0	3395	32.176034210609	0.083148289034
0	3400	32.259182499643	0.014076201124
0	3406	32.273258700767	0.028294727082
0	3411	32.301553427849	0.027282885738
0	3417	32.328836313587	0.069743454563
0	3423	32.39857976815	0.040750916545
0	3431	32.439330684695	0.08848099116
0	3436	32.527811675855	0.09850287828
0	3443	32.626314554135	0.02382392913
0	3448	32.650138483265	0.06492228178
0	3453	32.715060765045	0.005076704197
0	3455	32.720137469242	0.015758001436
0	3464	32.735895470678	0.014795093662
0	3469	32.75069056434	0.007048394221
0	3471	32.757738958561	0.044816460251
0	3479	32.802555418812	0.002848326623
0	3481	32.805403745435	0.032358735202
0	3490	32.837762480637	0.017948065919
0	3495	32.855710546556	0.033465143599
0	3501	32.889175690155	0.015198577961
0	3506	32.904374268116	0.03067195448
0	3512	32.935046222596	0.030453222766
0	3517	32.965499445362	0.037179159589
0	3522	33.002678604951	0.057487069387
0	3527	33.060165674338	0.029171188552
0	3534	33.08933686289	0.059474812567
0	3539	33.148811675457	0.095742112882
0	3544	33.244553788339	0.016670166919
0	3549	33.261223955258	0.028408524187
0	3554	33.289632479445	0.023895899376
0	3559	33.313528378821	0.087685732251
0	3565	33.401214111072	0.009992776896
0	3571	33.411206887968	0.035600403281
0	3577	33.446807291249	0.077687275102
0	3582	33.524494566351	0.004516862204
0	3584	33.529011428555	0.002926394947
0	3586	33.531937823502	0.053946345425
0	3598	33.585884168927	0.05970066853
0	3603	33.645584837457	0.011571048598
0	3608	33.657155886055	0.075410761581
0	3613	33.732566647636	0.093955921711
0	3620	33.826522569347	0.075120639686
0	3625	33.901643209033	0.057184531029
0	3632	33.958827740062	0.015016254014
0	3637	33.973843994076	0.009823094295
0	3642	33.983667088371	0.023405322662
0	3647	34.007072411033	0.003620955506
0	3649	34.010693366539	0.044288032301
0	3657	34.05498139884	0.000486770467
0	3659	34.055468169307	0.015929192394
0	3665	34.071397361701	0.111304199472
0	3673	34.182701561173	0.023169501377
0	3678	34.20587106255	0.007162651069
0	3680	34.213033713619	0.010973408045
0	3688	34.224007121664	0.075523080061
0	3695	34.299530201725	0.030795964189
0	3700	34.330326165914	0.129622430439
0	3705	34.459948596353	0.002281902475
0	3707	34.462230498828	0.062794674217
0	3715	34.525025173045	0.080420892454
0	3720	34.605446065499	0.033747548683
0	3725	34.639193614182	0.004003942797
0	3727	34.643197556979	0.031696606325
0	3735	34.674894163304	0.036577266957
0	3740	34.711471430261	0.107154985021
0	3746	34.818626415282	0.018322564592
0	3751	34.836948979874	0.033511593829
0	3758	34.870460573703	0.04308337459
0	3764	34.913543948293	0.026770217555
0	3769	34.940314165848	0.160240441481
0	3774	35.100554607329	0.009564802295
0	3779	35.110119409624	0.051862254705
0	3785	35.161981664329	0.032245424558
0	3790	35.194227088887	0.001800141487
0	3792	35.196027230374	0.076542420947
0	3800	35.272569651321	0.028141260091
0	3805	35.300710911412	0.040644918059
0	3810	35.341355829471	0.03566921414
0	3815	35.377025043611	0.008709758019
0	3820	35.38573480163	0.038412667093
0	3825	35.424147468723	0.007764279275
0	3828	35.431911747998	0.057189768956
0	3838	35.489101516954	0.052414455248
0	3843	35.541515972202	0.016258543524
0	3848	35.557774515726	0.038742118975
0	3853	35.596516634701	0.006897661596
0	3855	35.603414296297	0.019702878597
0	3863	35.623117174894	0.024934616644
0	3868	35.648051791538	0.00795060084
0	3871	35.656002392378	0.156641474477
0	3881	35.812643866855	0.008709935829
0	3886	35.821353802684	0.010359259113
0	3891	35.831713061797	0.006929341071
0	3893	35.838642402868	0.117161996505
0	3902	35.955804399373	0.043246905471
0	3907	35.999051304844	0.03924185098
0	3913	36.038293155824	0.004839873615
0	3915	36.043133029439	0.03052414225
0	3923	36.073657171689	0.120700821525
0	3931	36.194357993214	0.106871084521
0	3938	36.301229077735	0.004330849722
0	3940	36.305559927457	0.030680210487
0	3948	36.336240137944	0.080566599956
0	3953	36.4168067379	0.064398098754
0	3959	36.481204836654	0.104831813676
0	3966	36.58603665033	0.025460124343
0	3971	36.611496774673	0.004905976131
0	3975	36.616402750804	0.11719348204
0	3985	36.733596232844	0.027782945658
0	3990	36.761379178502	0.058563184747
0	3995	36.819942363249	0.032048677263
0	4001	36.851991040512	0.060135689191
0	4006	36.912126729703	0.043398499101
0	4011	36.955525228804	0.019854047501
0	4016	36.975379276305	0.062982058531
0	4022	37.038361334836	0.070689166477
0	4028	37.109050501313	0.001372105022
0	4030	37.110422606335	0.050538458155
0	4039	37.16096106449	0.065726104904
0	4044	37.226687169394	0.0137231761
0	4049	37.240410345494	0.072828010579
0	4055	37.313238356073	0.008749752411
0	4060	37.321988108484	0.00049072182
0	4062	37.322478830304	0.07957780614
0	4070	37.402056636444	0.018429146981
0	4075	37.420485783425	0.159912748839
0	4084	37.580398532264	0.01325465507
0	4089	37.593653187334	0.030637272243
0	4095	37.624290459577	0.035001281806
0	4100	37.659291741383	0.044700070134
0	4105	37.703991811517	0.153653761139
0	4111	37.857645572656	0.097498845592
0	4119	37.955144418248	0.040800928198
0	4124	37.995945346446	0.030552878064
0	4129	38.02649822451	0.00512759465
0	4131	38.03162581916	0.15169712862
0	4139	38.18332294778	0.048600544553
0	4146	38.231923492333	0.042871755131
0	4151	38.274795247464	0.099396972742
0	4156	38.374192220206	0.085953465589
0	4162	38.460145685795	0.008576931369
0	4167	38.468722617164	0.119758989469
0	4172	38.588481606633	0.244174949517
0	4178	38.83265655615	0.084511747738
0	4185	38.917168303888	0.004441619133
0	4187	38.921609923021	0.00868282816
0	4192	38.930292751181	0.004961076324
0	4197	38.935253827505	0.049563975288
0	4205	38.984817802793	0.050202558694
0	4210	39.035020361487	0.025410972703
0	4215	39.06043133419	0.149088982866
0	4222	39.209520317056	0.003238284639
0	4224	39.212758601695	0.138030222784
0	4232	39.350788824479	0.02758518063
0	4237	39.378374005109	0.029654079866
0	4245	39.408028084975	0.014966419121
0	4250	39.422994504096	0.065041871373
0	4255	39.488036375469	0.094536457722
0	4260	39.582572833191	0.067785925693
0	4265	39.650358758884	0.001693592762
0	4267	39.652052351646	0.01833525769
0	4275	39.670387609336	0.159688093634
0	4283	39.83007570297	0.00637867869
0	4285	39.83645438166	0.021953849279
0	4293	39.858408230939	0.029338440334
0	4298	39.887746671273	0.022057740536
0	4303	39.909804411809	0.024860464317
0	4308	39.934664876126	0.000823164199
0	4310	39.935488040325	0.037948238712
0	4319	39.973436279037	0.010242613357
0	4324	39.983678892394	0.093332023509
0	4329	40.077010915903	0.025646349591
0	4334	40.102657265494	0.03842312887
0	4339	40.141080394364	0.132459413112
0	4346	40.273539807476	0.057013943846
0	4352	40.330553751322	0.005246637366
0	4354	40.335800388688	0.046975099293
0	4362	40.382775487981	0.145295980183
0	4368	40.528071468164	0.005183541832
0	4370	40.533255009996	0.101814709364
0	4381	40.63506971936	0.004827063951
0	4383	40.639896783311	0.030271689082
0	4391	40.670168472393	0.002879645841
0	4393	40.673048118234	0.01977828002
0	4401	40.692826398254	0.004525373507
0	4403	40.697351771761	0.013246746882
0	4411	40.710598518643	0.013536219537
0	4416	40.72413473818	0.047656126913
0	4421	40.771790865093	0.091477107793
0	4427	40.863267972886	0.001681696046
0	4429	40.864949668932	0.036946000997
0	4438	40.901895669929	0.000786456189
0	4440	40.902682126118	0.035982244884
0	4449	40.938664371002	0.028000418667
0	4454	40.966664789669	0.052467108296
0	4460	41.019131897965	0.003525097418
0	4462	41.022656995383	0.039327954595
0	4470	41.061984949978	0.014513670756
0	4475	41.076498620734	0.001650199253
0	4477	41.078148819987	0.012497540832
0	4482	41.090646360819	0.043393093494
0	4490	41.134039454313	0.014597303586
0	4495	41.148636757899	0.073721111239
0	4501	41.222357869138	0.007023785848
0	4503	41.229381654986	0.023598404389
0	4512	41.252980059375	0.000605462253
0	4514	41.253585521628	0.033767793509
0	4522	41.287353315137	0.006135750366
0	4524	41.293489065503	0.199878173836
0	4533	41.493367239339	0.048179634814
0	4539	41.541546874153	0.014028796309
0	4544	41.555575670462	0.182978105923
0	4550	41.738553776385	0.023446066364
0	4555	41.761999842749	0.232013999797
0	4562	41.994013842546	0.002336745087
0	4564	41.996350587633	0.026301539788
0	4572	42.022652127421	0.01855808604
0	4577	42.041210213461	0.008893837893
0	4582	42.050104051354	0.089046733745
0	4587	42.139150785099	0.05091087894
0	4592	42.190061664039	0.082259171354
0	4599	42.272320835393	0.033697172211
0	4605	42.306018007604	0.05108591737
0	4610	42.357103924974	0.227391192593
0	4616	42.584495117567	0.022951396374
0	4621	42.607446513941	0.003376707844
0	4623	42.610823221785	0.018753097156
0	4631	42.629576318941	0.076446943536
0	4637	42.706023262477	0.080933053321
0	4643	42.786956315798	0.017011860981
0	4648	42.803968176779	0.003652582858
0	4650	42.807620759637	0.013815259646
0	4658	42.821436019283	0.057533129646
0	4664	42.878969148929	0.054310165558
0	4669	42.933279314487	0.023960634724
0	4675	42.957239949211	0.014122335598
0	4680	42.971362284809	0.050246665453
0	4685	43.021608950262	0.05480962805
0	4690	43.076418578312	0.130782046621
0	4695	43.207200624933	0.036418878652
0	4700	43.243619503585	0.096186928533
0	4705	43.339806432118	0.027590106082
0	4710	43.3673965382	0.034425694402
0	4715	43.401822232602	0.040448984757
0	4720	43.442271217359	0.027916339463
0	4725	43.470187556822	0.016917305935
0	4730	43.487104862757	0.086455981884
0	4737	43.573560844641	0.061306610612
0	4743	43.634867455253	0.067013798099
0	4748	43.701881253352	0.026794939767
0	4753	43.728676193119	0.029632870897
0	4758	43.758309064016	0.02235699513
0	4763	43.780666059146	0.173532254027
0	4772	43.954198313173	0.088204369609
0	4777	44.042402682782	0.022561939925
0	4784	44.064964622707	0.129491307275
0	4791	44.194455929982	0.025336160695
0	4796	44.219792090677	0.002354963553
0	4798	44.22214705423	0.067100987059
0	4806	44.289248041289	0.013239113667
0	4811	44.302487154956	0.02980859457
0	4816	44.332295749526	0.021425380209
0	4822	44.353721129735	0.138457224142
0	4827	44.492178353877	0.084360914438
0	4832	44.576539268315	0.014868676395
0	4837	44.59140794471	0.211650789817
0	4844	44.803058734527	0.024043911215
0	4849	44.827102645742	0.173642785295
0	4856	45.000745431037	0.059724497175
0	4862	45.060469928212	0.117666738404
0	4867	45.178136666616	0.113685358334
0	4873	45.29182202495	0.017588369271
0	4878	45.309410394221	0.006451925159
0	4880	45.31586231938	0.241486012398
0	4890	45.557348331778	0.013823635827
0	4895	45.571171967605	0.014345454769
0	4900	45.585517422374	0.012955612794
0	4905	45.598473035168	0.005597227057
0	4908	45.604070262225	0.033619145102
0	4916	45.637689407327	0.150748413609
0	4921	45.788437820936	0.11106070916
0	4926	45.899498530096	0.013290827451
0	4931	45.912789357547	0.0221667198
0	4936	45.934956077347	0.058521786501
0	4941	45.993477863848	0.024325956988
0	4946	46.017803820836	0.003006418457
0	4948	46.020810239293	0.124281554217
0	4957	46.14509179351	0.065598154054
0	4965	46.210689947564	0.006041569813
0	4967	46.216731517377	0.106735119727
0	4975	46.323466637104	0.049864946208
0	4980	46.373331583312	0.01590272726
0	4985	46.389234310572	0.007125147283
0	4987	46.396359457855	0.023825791049
0	4995	46.420185248904	0.023439784582
0	5000	46.443625033486	0.023443907781
0	5005	46.467068941267	0.019608064481
0	5010	46.486677005748	0.069072953992
0	5018	46.55574995974	0.056989770333
0	5023	46.612739730073	0.013577789584
0	5028	46.626317519657	0.079367861485
0	5033	46.705685381142	0.009428236213
0	5038	46.715113617355	0.035052275466
0	5043	46.750165892821	0.029827495844
0	5048	46.779993388665	0.017566064077
0	5053	46.797559452742	0.018153942009
0	5058	46.815713394751	0.108561294068
0	5063	46.924274688819	0.091376313391
0	5068	47.01565100221	0.021683242769
0	5073	47.037334244979	0.013573498321
0	5078	47.0509077433	0.06704508623
0	5083	47.11795282953	0.034896877442
0	5088	47.152849706972	0.040524657359
0	5093	47.193374364331	0.142871267391
0	5098	47.336245631722	0.011252124693
0	5103	47.347497756415	0.050255782429
0	5110	47.397753538844	0.039761110065
0	5116	47.437514648909	0.100979225161
0	5123	47.53849387407	0.036661266934
0	5128	47.575155141004	0.140845586498
0	5135	47.716000727502	0.021445591789
0	5140	47.737446319291	0.069467925347
0	5146	47.806914244638	0.001246404786
0	5148	47.808160649424	0.060127867235
0	5156	47.868288516659	0.008057128941
0	5161	47.8763456456	0.172047202379
0	5168	48.048392847979	0.007069655637
0	5170	48.055462503616	0.259256471152
0	5179	48.314718974768	0.061535942552
0	5185	48.37625491732	0.030057732319
0	5190	48.406312649639	0.061733993803
0	5195	48.468046643442	0.003675318871
0	5197	48.471721962313	0.047305087063
0	5206	48.519027049376	0.017321666375
0	5211	48.536348715751	0.055722911586
0	5216	48.592071627337	0.008264650616
0	5221	48.600336277953	0.029666528413
0	5226	48.630002806366	0.02702013488
0	5231	48.657022941246	0.05954907267
0	5236	48.716572013916	0.007037257771
0	5238	48.723609271687	0.023766983482
0	5247	48.747376255169	0.046331930015
0	5253	48.793708185184	0.005269806496
0	5256	48.79897799168	0.024128760758
0	5264	48.823106752438	0.161265804186
0	5271	48.984372556624	0.112873839538
0	5276	49.097246396162	0.003759590458
0	5278	49.10100598662	0.171781169624
0	5287	49.272787156244	0.000974464648
0	5289	49.273761620892	0.03958045473
0	5297	49.313342075622	0.19454550452
0	5302	49.507887580142	0.016067015143
0	5307	49.523954595285	0.008036502028
0	5312	49.531991097313	0.044852650705
0	5317	49.576843748018	0.014967650147
0	5322	49.591811398165	0.11353550537
0	5330	49.705346903535	0.012137271868
0	5335	49.717484175403	0.026105565221
0	5340	49.743589740624	0.043364600942
0	5345	49.786954341566	0.040156838596
0	5350	49.827111180162	0.185970415545
0	5356	50.013081595707	0.015848868994
0	5361	50.028930464701	0.015942052421
0	5366	50.044872517122	0.030389238206
0	5371	50.075261755328	0.17545317755
0	5376	50.250714932878	0.025684280663
0	5381	50.276399213541	0.001291402221
0	5383	50.277690615762	0.014278446025
0	5391	50.291969061787	0.109482335728
0	5396	50.401451397515	0.035247466069
0	5402	50.436698863584	0.061654436361
0	5408	50.498353299945	0.018580787741
0	5413	50.516934087686	0.016270835858
0	5418	50.533204923544	0.023343217178
0	5424	50.556548140722	0.112624643504
0	5430	50.669172784226	0.03721891307
0	5436	50.706391697296	0.001344030976
0	5438	50.707735728272	0.069433863693
0	5446	50.777169591965	0.049126417136
0	5452	50.826296009101	0.020286317193
0	5457	50.846582326294	0.019989763624
0	5462	50.866572089918	0.128955656539
0	5467	50.995527746457	0.170746245122
0	5477	51.166273991579	0.099140629014
0	5482	51.265414620593	0.009230793645
0	5487	51.274645414238	0.002495780121
0	5489	51.277141194359	0.115876303128
0	5497	51.393017497487	0.01462753006
0	5503	51.407645027547	0.020019076573
0	5508	51.42766410412	0.02954176102
0	5513	51.45720586514	0.110016466022
0	5521	51.567222331162	0.00552579383
0	5523	51.572748124992	0.035918291761
0	5532	51.608666416753	0.02142205144
0	5537	51.630088468193	0.035731709369
0	5542	51.665820177562	0.067372441185
0	5548	51.733192618747	0.024455420531
0	5553	51.757648039278	0.057052166713
0	5559	51.814700205991	0.037760590888
0	5565	51.852460796879	0.048693929574
0	5570	51.901154726453	0.144755880851
0	5576	52.045910607304	0.061984904031
0	5582	52.107895511335	0.111681992555
0	5587	52.21957750389	0.011465858582
0	5592	52.231043362472	0.056522859916
0	5597	52.287566222388	0.020904582947
0	5603	52.308470805335	0.050947659054
0	5608	52.359418464389	0.056388021679
0	5613	52.415806486068	0.039743641803
0	5618	52.455550127871	0.105695340732
0	5625	52.561245468603	0.015919650803
0	5631	52.577165119406	0.039227834846
0	5636	52.616392954252	0.008024205368
0	5641	52.62441715962	0.016613031179
0	5646	52.641030190799	0.097002410494
0	5652	52.738032601293	0.001535088651
0	5654	52.739567689944	0.050400677024
0	5662	52.789968366968	0.061951825369
0	5667	52.851920192337	0.017808289078
0	5672	52.869728481415	0.000395767325
0	5674	52.87012424874	0.030829654426
0	5682	52.900953903166	0.023314851322
0	5687	52.924268754488	0.001241660387
0	5689	52.925510414875	0.03780831239
0	5697	52.963318727265	0.040829634442
0	5702	53.004148361707	0.127623824677
0	5708	53.131772186384	0.022404398419
0	5714	53.154176584803	0.00468776938
0	5716	53.158864354183	0.034929050304
0	5724	53.193793404487	0.026038943244
0	5729	53.219832347731	0.008339787906
0	5734	53.228172135637	0.001230682204
0	5736	53.229402817841	0.027713423671
0	5744	53.257116241512	0.020973966173
0	5749	53.278090207685	0.118314513192
0	5757	53.396404720877	0.048673627182
0	5762	53.445078348059	0.000427400932
0	5764	53.445505748991	0.016360519066
0	5772	53.461866268057	0.173469691939
0	5777	53.635335959996	0.011770293325
0	5782	53.647106253321	0.05870350684
0	5787	53.705809760161	0.006148128344
0	5789	53.711957888505	0.005235613671
0	5794	53.717193502176	0.043035735376
0	5802	53.760229237552	0.017108734581
0	5807	53.777337972133	0.059416458014
0	5812	53.836754430147	0.038725839397
0	5818	53.875480269544	0.05573055015
0	5823	53.931210819694	0.064394511956
0	5828	53.99560533165	0.148660416974
0	5835	54.144265748624	0.024622068819
0	5840	54.168887817443	0.000135343729
0	5842	54.169023161172	0.012879243317
0	5847	54.181902404489	0.052092223241
0	5856	54.23399462773	0.030335620462
0	5861	54.264330248192	0.045863589846
0	5866	54.310193838038	0.178925086292
0	5872	54.48911892433	0.044426435616
0	5877	54.533545359946	0.0897336557
0	5882	54.623279015646	0.164532441513
0	5888	54.787811457159	0.12313221347
0	5896	54.910943670629	0.000850781186
0	5898	54.911794451815	0.055023426524
0	5907	54.966817878339	0.059615788711
0	5912	55.02643366705	0.029050432773
0	5918	55.055484099823	0.084014120004
0	5924	55.139498219827	0.057773736437
0	5929	55.197271956264	0.035647823956
0	5934	55.23291978022	0.052291264639
0	5939	55.285211044859	0.020320643337
0	5945	55.305531688196	0.001476590558
0	5947	55.307008278754	0.078232827535
0	5957	55.385241106289	0.125994434692
0	5962	55.511235540981	0.00511508905
0	5964	55.516350630031	0.039094221155
0	5972	55.555444851186	0.029173008615
0	5977	55.584617859801	0.236319759843
0	5986	55.820937619644	0.036693498351
0	5991	55.857631117995	0.024152651213
0	5996	55.881783769208	0.059201386817
0	6001	55.940985156025	0.08216766176
0	6006	56.023152817785	0.004764224144
0	6008	56.027917041929	0.030902618857
0	6018	56.058819660786	0.012922962436
0	6024	56.071742623222	0.087672405914
0	6031	56.159415029136	0.026407199536
0	6036	56.185822228672	0.038730686818
0	6041	56.22455291549	0.048814601148
0	6046	56.273367516638	0.109135694464
0	6051	56.382503211102	0.109001022358
0	6056	56.49150423346	0.106057722842
0	6061	56.597561956302	0.048224988088
0	6066	56.64578694439	0.019897419732
0	6072	56.665684364122	0.007162435189
0	6074	56.672846799311	0.025911392405
0	6083	56.698758191716	0.197072934231
0	6090	56.895831125947	0.039334155773
0	6095	56.93516528172	0.102702624193
0	6100	57.037867905913	0.048602448424
0	6106	57.086470354337	0.034930178347
0	6112	57.121400532684	0.023849887547
0	6118	57.145250420231	0.127775885833
0	6125	57.273026306064	0.039058439499
0	6131	57.312084745563	0.038976751442
0	6136	57.351061497005	0.006443932302
0	6138	57.357505429307	0.128396631435
0	6146	57.485902060742	0.057080776176
0	6152	57.542982836918	0.088567665966
0	6157	57.631550502884	0.016922056641
0	6163	57.648472559525	0.172550506468
0	6169	57.821023065993	0.002196361706
0	6171	57.823219427699	0.126150873068
0	6181	57.949370300767	0.006170473575
0	6183	57.955540774342	0.001834953514
0	6188	57.957375727856	0.005626497319
0	6190	57.963002225175	0.009604778807
0	6198	57.972607003982	0.019025547428
0	6206	57.99163255141	0.024643938418
0	6211	58.016276489828	0.014153621792
0	6216	58.03043011162	0.151976579507
0	6222	58.182406691127	0.04136629618
0	6227	58.223772987307	0.017835812634
0	6232	58.241608799941	0.11841180265
0	6238	58.360020602591	0.008745513005
0	6243	58.368766115596	0.043387757147
0	6249	58.412153872743	0.108711645357
0	6255	58.5208655181	0.045557290404
0	6260	58.566422808504	0.029565139278
0	6265	58.595987947782	0.013593291929
0	6270	58.609581239711	0.119230767162
0	6276	58.728812006873	0.043480768042
0	6281	58.772292774915	0.008731389824
0	6286	58.781024164739	0.007883602641
0	6291	58.78890776738	0.054105094224
0	6296	58.843012861604	0.020445876462
0	6302	58.863458738066	0.029014479399
0	6307	58.892473217465	0.04911190922
0	6312	58.941585126685	0.003978507755
0	6314	58.94556363444	0.022416465331
0	6322	58.967980099771	0.059612612104
0	6327	59.027592711875	0.120952569708
0	6332	59.148545281583	0.014210987176
0	6337	59.162756268759	0.10538901792
0	6342	59.268145286679	0.002021078883
0	6344	59.270166365562	0.028471805694
0	6352	59.298638171256	0.003090807432
0	6354	59.301728978688	0.036450336069
0	6362	59.338179314757	0.003151172213
0	6364	59.34133048697	0.032186240293
0	6372	59.373516727263	0.11915341366
0	6377	59.492670140923	0.01018926911
0	6382	59.502859410033	0.067331364427
0	6387	59.57019077446	0.028525299404
0	6392	59.598716073864	0.114169701721
0	6397	59.712885775585	0.010385164311
0	6402	59.723270939896	0.055825928678
0	6407	59.779096868574	0.062799779939
0	6412	59.841896648513	0.037638482602
0	6417	59.879535131115	0.037012609571
0	6424	59.916547740686	0.01815235772
0	6430	59.934700098406	0.019324709102
0	6436	59.954024807508	0.309795505936
0	6446	60.263820313444	0.00015521784
0	6448	60.263975531284	0.022485668397
0	6456	60.286461199681	0.045478535244
0	6463	60.331939734925	0.031805172718
0	6468	60.363744907643	0.052359612775
0	6473	60.416104520418	0.023760471939
0	6478	60.439864992357	0.00026015664
0	6480	60.440125148997	0.194432236138
0	6490	60.634557385135	0.175698941148
0	6495	60.810256326283	0.009597895098
0	6500	60.819854221381	0.054512279323
0	6505	60.874366500704	0.019873953996
0	6510	60.8942404547	0.017346444158
0	6515	60.911586898858	0.057026223748
0	6520	60.968613122606	0.011179952917
0	6525	60.979793075523	0.003264679782
0	6527	60.983057755305	0.129983662267
0	6537	61.113041417572	0.046729020817
0	6543	61.159770438389	0.018498958988
0	6548	61.178269397377	0.03247053634
0	6554	61.210739933717	0.025810172747
0	6561	61.236550106464	0.016703754153
0	6566	61.253253860617	0.050128120416
0	6573	61.303381981033	0.013617561318
0	6578	61.316999542351	0.110661361577
0	6583	61.427660903928	0.036130111877
0	6588	61.463791015805	0.028335097992
0	6593	61.492126113797	0.022937565132
0	6599	61.515063678929	0.131706569797
0	6606	61.646770248726	0.030488108643
0	6611	61.677258357369	0.044834291829
0	6620	61.722092649198	0.020585028894
0	6625	61.742677678092	0.028262764066
0	6630	61.770940442158	0.176157567061
0	6636	61.947098009219	0.044920118322
0	6641	61.992018127541	0.007161163574
0	6643	61.999179291115	0.021886972806
0	6651	62.021066263921	0.005090782099
0	6653	62.02615704602	0.053504124481
0	6661	62.079661170501	0.02103338362
0	6666	62.100694554121	0.052822049709
0	6671	62.15351660383	0.044705294406
0	6676	62.198221898236	0.086219594273
0	6681	62.284441492509	0.053819522971
0	6687	62.33826101548	0.0257723775
0	6693	62.36403339298	0.025313198354
0	6699	62.389346591334	0.001914439889
0	6701	62.391261031223	0.36167342264
0	6713	62.752934453863	0.208772180211
0	6718	62.961706634074	0.02168497352
0	6723	62.983391607594	0.029723300835
0	6728	63.013114908429	0.063900106458
0	6734	63.077015014887	0.138737731079
0	6741	63.215752745966	0.050747947918
0	6746	63.266500693884	0.055743342704
0	6751	63.322244036588	0.08384673665
0	6757	63.406090773238	0.015509806163
0	6763	63.421600579401	0.186957423902
0	6771	63.608558003303	0.041513032338
0	6776	63.650071035641	0.11027004019
0	6782	63.760341075831	0.157249877635
0	6788	63.917590953466	0.072315378608
0	6793	63.989906332074	0.006022913388
0	6795	63.995929245462	0.059907569392
0	6804	64.055836814854	0.015888467069
0	6809	64.071725281923	0.020435882712
0	6814	64.092161164635	0.004281039706
0	6816	64.096442204341	0.007989989022
0	6821	64.104432193363	0.072466093474
0	6830	64.176898286837	0.003234180257
0	6832	64.180132467094	0.001096369034
0	6834	64.181228836128	0.013847111266
0	6842	64.195075947394	0.007381594162
0	6848	64.202457541556	0.028306477585
0	6856	64.230764019141	0.015097750174
0	6861	64.245861769315	0.036906837127
0	6866	64.282768606442	0.10242915783
0	6871	64.385197764272	0.074158670402
0	6877	64.459356434674	0.009886588397
0	6882	64.469243023071	0.159394208614
0	6890	64.628637231685	0.028394384656
0	6895	64.657031616341	0.006239654613
0	6897	64.663271270954	0.01966086435
0	6905	64.682932135304	0.00565866662
0	6907	64.688590801924	0.043781939905
0	6915	64.732372741829	0.044542690095
0	6920	64.776915431924	0.137810653874
0	6926	64.914726085798	0.068402701069
0	6931	64.983128786867	0.141326198528
0	6936	65.124454985395	0.09424323071
0	6942	65.218698216105	0.002696847821
0	6945	65.221395063926	0.137312593511
0	6953	65.358707657437	0.045343155365
0	6959	65.404050812802	0.204996714633
0	6967	65.609047527435	0.111189140788
0	6972	65.720236668223	0.025524758135
0	6978	65.745761426358	0.07591845742
0	6983	65.821679883778	0.023928828553
0	6988	65.845608712331	0.011883293555
0	6993	65.857492005886	0.007997210668
0	6995	65.865489216554	0.072407306197
0	7003	65.937896522751	0.057748726678
0	7008	65.995645249429	0.010478224286
0	7013	66.006123473715	0.053466552918
0	7018	66.059590026633	0.114512860995
0	7024	66.174102887628	0.099047764806
0	7030	66.273150652434	0.000448569367
0	7032	66.273599221801	0.005115923979
0	7034	66.27871514578	0.004728336825
0	7039	66.283443482605	0.034435542198
0	7050	66.317879024803	0.048271789985
0	7055	66.366150814788	0.043503995518
0	7061	66.409654810306	0.024098960478
0	7066	66.433753770784	0.013824384205
0	7071	66.447578154989	0.005077438529
0	7073	66.452655593518	0.009257802674
0	7078	66.461913396192	0.209763431006
0	7088	66.671676827198	0.098156164478
0	7094	66.769832991676	0.113448454331
0	7100	66.883281446007	0.003015901189
0	7102	66.886297347196	0.015811855292
0	7110	66.902109202488	0.031802523556
0	7115	66.933911726044	0.03204577116
0	7120	66.965957497204	0.006155522746
0	7122	66.97211301995	0.032672662986
0	7130	67.004785682936	0.030537708743
0	7135	67.035323391679	0.035503517283
0	7140	67.070826908962	0.195507038483
0	7145	67.266333947445	0.170956825134
0	7151	67.437290772579	0.027556897416
0	7156	67.464847669995	0.00526572096
0	7158	67.470113390955	0.097289229196
0	7167	67.567402620151	0.002022897783
0	7169	67.569425517934	0.006239376118
0	7174	67.575664894052	0.033053990041
0	7183	67.608718884093	0.015821369559
0	7188	67.624540253652	0.030648363434
0	7194	67.655188617086	0.025858346354
0	7200	67.68104696344	0.013411154664
0	7205	67.694458118104	0.025525628797
0	7211	67.719983746901	0.003033715009
0	7213	67.72301746191	0.055643190581
0	7221	67.778660652491	0.006610579991
0	7223	67.785271232482	0.021134489403
0	7231	67.806405721885	0.097160027816
0	7237	67.903565749701	0.062547433033
0	7242	67.966113182734	0.025513569888
0	7247	67.991626752622	0.050969759403
0	7252	68.042596512025	0.02401459069
0	7258	68.066611102715	0.025471425511
0	7263	68.092082528226	0.001110932601
0	7265	68.093193460827	0.028260581742
0	7275	68.121454042569	0.023480401606
0	7280	68.144934444175	0.047664296561
0	7286	68.192598740736	0.054177409415
0	7292	68.246776150151	0.003630802905
0	7294	68.250406953056	0.04908924528
0	7303	68.299496198336	0.086412968648
0	7308	68.385909166984	0.122665292075
0	7313	68.508574459059	0.05298224716
0	7319	68.561556706219	0.055705736823
0	7324	68.617262443042	0.064793890825
0	7329	68.682056333867	0.019584226994
0	7334	68.701640560861	0.038493096791
0	7339	68.740133657652	0.019005951567
0	7344	68.759139609219	0.005853501966
0	7346	68.764993111185	0.089582716794
0	7355	68.854575827979	0.025962686244
0	7360	68.880538514223	0.074761555906
0	7365	68.955300070129	0.025991097244
0	7372	68.981291167373	0.016505334703
0	7377	68.997796502076	0.019359873362
0	7382	69.017156375438	0.062575447848
0	7387	69.079731823286	0.001520399688
0	7389	69.081252222974	0.041228586159
0	7397	69.122480809133	0.066828420866
0	7402	69.189309229999	0.025512957518
0	7407	69.214822187517	0.005814583338
0	7409	69.220636770855	0.037842715861
0	7418	69.258479486716	0.046609337028
0	7423	69.305088823744	0.004454297875
0	7425	69.309543121619	0.060737785428
0	7434	69.370280907047	0.054782493512
0	7439	69.425063400559	0.050363634419
0	7444	69.475427034978	0.001504139777
0	7446	69.476931174755	0.15988293787
0	7455	69.636814112625	0.110040843718
0	7462	69.746854956343	0.005451593181
0	7464	69.752306549524	0.057303901753
0	7473	69.809610451277	0.100933187996
0	7478	69.910543639273	0.110964776089
0	7484	70.021508415362	0.001481237615
0	7486	70.022989652977	6.0415094e-05
0	7488	70.023050068071	0.038276954114
0	7499	70.061327022185	0.138405002884
0	7505	70.199732025069	0.025896172254
0	7510	70.225628197323	0.158871531073
0	7516	70.384499728396	0.037136187485
0	7521	70.421635915881	0.079560113167
0	7527	70.501196029048	0.022714378853
0	7532	70.523910407901	0.241879372453
0	7540	70.765789780354	0.010571058749
0	7545	70.776360839103	0.021942708852
0	7551	70.798303547955	0.00096540526
0	7553	70.799268953215	0.094305755342
0	7561	70.893574708557	0.036506101013
0	7567	70.93008080957	0.073630643127
0	7575	71.003711452697	0.092504460994
0	7581	71.096215913691	0.063742572627
0	7586	71.159958486318	0.023357661323
0	7591	71.183316147641	0.050176219395
0	7598	71.233492367036	0.012606983822
0	7603	71.246099350858	0.018363408375
0	7608	71.264462759233	0.004198002002
0	7610	71.268660761235	0.03853155304
0	7618	71.307192314275	0.004458554113
0	7620	71.311650868388	0.016049882895
0	7628	71.327700751283	0.01251266402
0	7633	71.340213415303	0.000436394815
0	7635	71.340649810118	0.005268807032
0	7637	71.34591861715	0.00126305609
0	7639	71.34718167324	0.015396939779
0	7647	71.362578613019	0.007790959306
0	7652	71.370369572325	0.003421943769
0	7657	71.373791516094	0.036052620221
0	7668	71.409844136315	0.003392793902
0	7670	71.413236930217	0.012593739235
0	7679	71.425830669452	0.09699308798
0	7685	71.522823757432	0.02306128888
0	7690	71.545885046312	0.008844035306
0	7695	71.554729081618	0.002834194058
0	7697	71.557563275676	0.04101294963
0	7705	71.598576225306	0.121066832322
0	7711	71.719643057628	0.074240703702
0	7716	71.79388376133	0.108120247136
0	7723	71.902004008466	0.030477959042
0	7729	71.932481967508	0.113785999154
0	7734	72.046267966662	0.008324509696
0	7739	72.054592476358	0.020187645356
0	7744	72.074780121714	0.011131942602
0	7749	72.085912064316	0.062400911564
0	7754	72.14831297588	0.028368405983
0	7759	72.176681381863	0.027838540572
0	7764	72.204519922435	0.037563618684
0	7770	72.242083541119	0.017954784141
0	7775	72.26003832526	0.021496110137
0	7780	72.281534435397	0.003650627192
0	7782	72.285185062589	0.076043795382
0	7792	72.361228857971	0.027395621885
0	7797	72.388624479856	0.069519466361
0	7802	72.458143946217	0.024577267938
0	7807	72.482721214155	0.131010078844
0	7815	72.613731292999	0.008741100002
0	7820	72.622472393001	0.001468997364
0	7822	72.623941390365	0.021555091361
0	7830	72.645496481726	0.113020022369
0	7836	72.758516504095	0.005025276187
0	7838	72.763541780282	0.024925816596
0	7848	72.788467596878	0.102436899679
0	7855	72.890904496557	0.105339606294
0	7861	72.996244102851	0.055069803915
0	7866	73.051313906766	0.058685886394
0	7871	73.10999979316	0.010704109733
0	7878	73.120703902893	0.218499987571
0	7885	73.339203890464	0.125107899127
0	7890	73.464311789591	0.071206550782
0	7895	73.535518340373	0.043337053533
0	7901	73.578855393906	0.022670670917
0	7906	73.601526064823	0.030430967703
0	7911	73.631957032526	0.034763789049
0	7917	73.666720821575	0.051410265914
0	7922	73.718131087489	0.023611437432
0	7927	73.741742524921	0.014653174889
0	7932	73.75639569981	0.022699572337
0	7937	73.779095272147	0.040045434143
0	7942	73.81914070629	0.015116406902
0	7947	73.834257113192	0.007072605249
0	7950	73.841329718441	0.034256003897
0	7958	73.875585722338	0.011189438607
0	7963	73.886775160945	0.057244322473
0	7968	73.944019483418	0.036082937385
0	7973	73.980102420803	0.016240840232
0	7978	73.996343261035	0.005128962995
0	7980	74.00147222403	0.037156782715
0	7988	74.038629006745	0.095477750925
0	7994	74.13410675767	0.006243042892
0	7996	74.140349800562	0.025171305773
0	8004	74.165521106335	0.008708461055
0	8009	74.17422956739	0.013268497889
0	8014	74.187498065279	0.002396859979
0	8016	74.189894925258	0.044025921915
0	8024	74.233920847173	0.176562070025
0	8030	74.410482917198	0.068685963234
0	8035	74.479168880432	0.000193391159
0	8037	74.479362271591	0.046950930176
0	8045	74.526313201767	0.009836034431
0	8050	74.536149236198	0.043257452946
0	8055	74.579406689144	0.047449317339
0	8060	74.626856006483	0.00932248171
0	8065	74.636178488193	0.004243570552
0	8067	74.640422058745	0.0579757983
0	8075	74.698397857045	0.106809696316
0	8081	74.805207553361	0.188184039677
0	8088	74.993391593038	0.063580500116
0	8093	75.056972093154	0.04690040578
0	8098	75.103872498934	0.169646535732
0	8105	75.273519034666	0.019903050249
0	8110	75.293422084915	0.035426803772
0	8115	75.328848888687	0.081149500853
0	8122	75.40999838954	0.017862589763
0	8127	75.427860979303	0.090505550573
0	8132	75.518366529876	0.039869923792
0	8137	75.558236453668	0.026831104149
0	8142	75.585067557817	0.133551248675
0	8147	75.718618806492	0.026859186854
0	8152	75.745477993346	0.036777837747
0	8158	75.782255831093	0.137928066146
0	8164	75.920183897239	0.015544603155
0	8169	75.935728500394	0.064039816153
0	8175	75.999768316547	0.104940921429
0	8180	76.104709237976	0.001672737956
0	8182	76.106381975932	0.023254287187
0	8190	76.129636263119	0.027751586266
0	8195	76.157387849385	6.921563e-05
0	8197	76.157457065015	0.00492997501
0	8199	76.162387040025	0.0142300092
0	8207	76.176617049225	0.192095815173
0	8216	76.368712864398	0.019153403354
0	8221	76.387866267752	0.04280830787
0	8227	76.430674575622	0.097870919612
0	8232	76.528545495234	0.051596035146
0	8238	76.58014153038	0.030670903306
0	8243	76.610812433686	0.022664223541
0	8248	76.633476657227	0.029402190584
0	8253	76.662878847811	0.055088095866
0	8260	76.717966943677	0.020481358004
0	8265	76.738448301681	0.042413340492
0	8270	76.780861642173	0.106296528497
0	8275	76.88715817067	0.074512454334
0	8281	76.961670625004	0.145045452059
0	8289	77.106716077063	0.115180343831
0	8294	77.221896420894	0.240734899987
0	8301	77.462631320881	0.025901452856
0	8306	77.488532773737	0.023639677236
0	8312	77.512172450973	0.112854357082
0	8318	77.625026808055	0.169287045145
0	8324	77.7943138532	0.00336484836
0	8326	77.79767870156	0.07848191773
0	8335	77.87616061929	0.057834964485
0	8341	77.933995583775	0.056302639885
0	8347	77.99029822366	0.013137770497
0	8352	78.003435994157	0.014044557775
0	8358	78.017480551932	0.038703602134
0	8363	78.056184154066	0.012196483493
0	8368	78.068380637559	0.074147968219
0	8374	78.142528605778	0.009078960883
0	8380	78.151607566661	0.068636200292
0	8385	78.220243766953	0.128039695738
0	8392	78.348283462691	0.063904314694
0	8398	78.412187777385	0.017412431709
0	8403	78.429600209094	0.032975140003
0	8408	78.462575349097	0.030173939621
0	8414	78.492749288718	0.010784992064
0	8419	78.503534280782	0.034056763905
0	8425	78.537591044687	0.011506288408
0	8430	78.549097333095	0.075292557154
0	8435	78.624389890249	0.038336269106
0	8441	78.662726159355	0.092970328621
0	8447	78.755696487976	0.028796148644
0	8452	78.78449263662	0.007487260413
0	8454	78.791979897033	0.184423598774
0	8463	78.976403495807	0.027835133205
0	8469	79.004238629012	0.017892633616
0	8475	79.022131262628	0.092529282329
0	8480	79.114660544957	0.004113128274
0	8482	79.118773673231	0.085196580221
0	8491	79.203970253452	0.064891828457
0	8497	79.268862081909	0.005402303344
0	8499	79.274264385253	0.185299531866
0	8507	79.459563917119	0.00850285444
0	8509	79.468066771559	0.076183514017
0	8518	79.544250285576	0.01813455681
0	8523	79.562384842386	0.014187505127
0	8528	79.576572347513	0.003917490055
0	8530	79.580489837568	0.001862304615
0	8532	79.582352142183	0.027639966675
0	8543	79.609992108858	0.026121462167
0	8548	79.636113571025	0.005693032865
0	8550	79.64180660389	0.105084679204
0	8558	79.746891283094	0.041991675069
0	8564	79.788882958163	0.028281146051
0	8569	79.817164104214	0.01415509145
0	8574	79.831319195664	0.016709770748
0	8580	79.848028966412	0.045370645997
0	8585	79.893399612409	0.136901164764
0	8592	80.030300777173	0.006251277442
0	8594	80.036552054615	0.073978757067
0	8602	80.110530811682	0.186243718705
0	8607	80.296774530387	0.047207062603
0	8612	80.34398159299	0.134826742696
0	8618	80.478808335686	0.000134032917
0	8620	80.478942368603	0.024862323492
0	8629	80.503804692095	0.134049754487
0	8635	80.637854446582	0.013865376447
0	8640	80.651719823029	0.056017954138
0	8646	80.707737777167	0.014410658395
0	8651	80.722148435562	0.012710233136
0	8656	80.734858668698	0.033023694714
0	8661	80.767882363412	0.001253229378
0	8663	80.76913559279	0.002040725018
0	8665	80.771176317808	0.000374817222
0	8667	80.77155113503	0.051041620953
0	8681	80.822592755983	0.131141276095
0	8690	80.953734032078	0.026238022204
0	8695	80.979972054282	0.05907026993
0	8701	81.039042324212	0.02369307895
0	8706	81.062735403162	0.061064008845
0	8712	81.123799412007	0.082869726033
0	8719	81.20666913804	0.045325063861
0	8725	81.251994201901	0.061727693489
0	8731	81.31372189539	0.038526866038
0	8736	81.352248761428	0.154319856944
0	8742	81.506568618372	0.030401581288
0	8747	81.53697019966	0.021688309475
0	8752	81.558658509135	0.045838693584
0	8757	81.604497202719	0.11391548714
0	8764	81.718412689859	0.053077665815
0	8769	81.771490355674	0.073476665793
0	8774	81.844967021467	0.023343608873
0	8779	81.86831063034	0.02211355945
0	8784	81.89042418979	0.055166265135
0	8789	81.945590454925	0.048598819654
0	8795	81.994189274579	0.030521677152
0	8800	82.024710951731	0.017023909577
0	8805	82.041734861308	0.004445211245
0	8807	82.046180072553	0.10373261912
0	8817	82.149912691673	0.013274752132
0	8822	82.163187443805	0.005963243499
0	8824	82.169150687304	0.004243686191
0	8829	82.173394373495	0.011940427972
0	8834	82.185334801467	0.019431678312
0	8842	82.204766479779	0.010107846813
0	8847	82.214874326592	0.047250899531
0	8852	82.262125226123	0.025794086126
0	8857	82.287919312249	0.022913728153
0	8862	82.310833040402	0.06837028595
0	8867	82.379203326352	0.064772833196
0	8872	82.443976159548	0.037423211746
0	8877	82.481399371294	0.056669413015
0	8882	82.538068784309	0.033439934209
0	8887	82.571508718518	0.007814632125
0	8892	82.579323350643	2.7305998e-05
0	8894	82.579350656641	0.009198697182
0	8899	82.588549353823	0.027704207242
0	8907	82.616253561065	0.003330256862
0	8909	82.619583817927	0.003283159259
0	8911	82.622866977186	0.015348869127
0	8919	82.638215846313	0.011675685302
0	8927	82.649891531615	0.021412901441
0	8932	82.671304433056	0.134702884249
0	8938	82.806007317305	0.004619375938
0	8940	82.810626693243	0.012128947944
0	8948	82.822755641187	0.046093962914
0	8953	82.868849604101	0.097715438585
0	8958	82.966565042686	0.0626539047
0	8963	83.029218947386	0.08120052219
0	8968	83.110419469576	0.008552590952
0	8973	83.118972060528	0.008666876061
0	8978	83.127638936589	0.020937967613
0	8983	83.148576904202	0.046533677831
0	8989	83.195110582033	0.064959966622
0	8995	83.260070548655	0.006145789408
0	8997	83.266216338063	0.054430808653
0	9005	83.320647146716	0.065077105423
0	9011	83.385724252139	0.096365224863
0	9016	83.482089477002	0.050731337713
0	9022	83.532820814715	0.040439506314
0	9027	83.573260321029	0.08354932876
0	9032	83.656809649789	0.001304698248
0	9034	83.658114348037	0.032637181027
0	9042	83.690751529064	0.002951452643
0	9044	83.693702981707	0.123174731459
0	9052	83.816877713166	0.004172400878
0	9054	83.821050114044	0.002530410466
0	9056	83.82358052451	0.03640114415
0	9068	83.85998166866	0.017328350456
0	9073	83.877310019116	0.070346527264
0	9078	83.94765654638	0.062772533575
0	9087	84.010429079955	0.001640277736
0	9089	84.012069357691	0.027073624683
0	9097	84.039142982374	0.030503539564
0	9102	84.069646521938	0.009494587873
0	9108	84.079141109811	0.087090701073
0	9117	84.166231810884	0.00567023611
0	9119	84.171902046994	0.055222340249
0	9127	84.227124387243	0.085006196463
0	9134	84.312130583706	0.039473829742
0	9139	84.351604413448	0.032041303575
0	9144	84.383645717023	0.044435201381
0	9149	84.428080918404	0.106973876149
0	9155	84.535054794553	0.113399519542
0	9161	84.648454314095	0.066079505309
0	9166	84.714533819404	0.042792461072
0	9171	84.757326280476	0.026358439485
0	9176	84.783684719961	0.027393434699
0	9181	84.81107815466	0.023381203863
0	9186	84.834459358523	0.060693028153
0	9192	84.895152386676	0.036246171815
0	9197	84.931398558491	0.022096659444
0	9202	84.953495217935	0.109938264483
0	9207	85.063433482418	0.180432750846
0	9213	85.243866233264	0.066833051938
0	9218	85.310699285202	0.102904558883
0	9223	85.413603844085	0.000258314305
0	9225	85.41386215839	0.008518867934
0	9230	85.422381026324	0.059234307533
0	9239	85.481615333857	0.057620550969
0	9247	85.539235884826	0.125979507948
0	9252	85.665215392774	0.001733235128
0	9254	85.666948627902	0.061972357939
0	9262	85.728920985841	0.108231358784
0	9270	85.837152344625	0.009740304826
0	9275	85.846892649451	0.09316929919
0	9280	85.940061948641	0.033035754671
0	9285	85.973097703312	0.035680557663
0	9290	86.008778260975	0.007559521322
0	9292	86.016337782297	0.006830442985
0	9297	86.023168225282	0.022235922748
0	9306	86.04540414803	0.048573397678
0	9311	86.093977545708	0.138324008403
0	9316	86.232301554111	0.013678243112
0	9322	86.245979797223	0.128396135988
0	9327	86.374375933211	0.049830463958
0	9332	86.424206397169	0.016622596079
0	9337	86.440828993248	0.059166976168
0	9342	86.499995969416	0.020747829136
0	9347	86.520743798552	0.005616734033
0	9349	86.526360532585	0.045841151865
0	9357	86.57220168445	0.032403517984
0	9364	86.604605202434	0.165109197623
0	9372	86.769714400057	0.044045380864
0	9378	86.813759780921	0.007996780193
0	9383	86.821756561114	0.014626403646
0	9388	86.83638296476	0.014847352939
0	9393	86.851230317699	0.011220360177
0	9398	86.862450677876	0.103398115758
0	9404	86.965848793634	0.050785633653
0	9409	87.016634427287	0.033853085618
0	9414	87.050487512905	0.071510967413
0	9420	87.121998480318	0.114612481292
0	9425	87.23661096161	0.022244923449
0	9430	87.258855885059	0.010260140916
0	9435	87.269116025975	0.061704001337
0	9440	87.330820027312	0.038035830092
0	9445	87.368855857404	0.044260842233
0	9450	87.413116699637	0.019746264605
0	9455	87.432862964242	0.082929669345
0	9461	87.515792633587	0.019029544966
0	9466	87.534822178553	0.01141233116
0	9471	87.546234509713	0.029608740199
0	9476	87.575843249912	0.079579105654
0	9482	87.655422355566	0.028376629192
0	9487	87.683798984758	0.015490106728
0	9492	87.699289091486	0.022107508596
0	9497	87.721396600082	0.017709930704
0	9503	87.739106530786	0.123238006821
0	9509	87.862344537607	0.191228482822
0	9517	88.053573020429	0.065790711589
0	9522	88.119363732018	0.002355291874
0	9524	88.121719023892	0.065014457102
0	9533	88.186733480994	0.010520845162
0	9539	88.197254326156	0.017118420643
0	9544	88.214372746799	0.036789666351
0	9549	88.25116241315	0.043103081365
0	9554	88.294265494515	0.023579786023
0	9559	88.317845280538	0.075520240934
0	9564	88.393365521472	0.013860171926
0	9569	88.407225693398	0.079381464379
0	9574	88.486607157777	0.057688188168
0	9579	88.544295345945	0.02112017247
0	9584	88.565415518415	0.055317653248
0	9589	88.620733171663	0.073673888833
0	9594	88.694407060496	0.165853368886
0	9600	88.860260429382	0.066570217522
0	9605	88.926830646904	0.105433374094
0	9610	89.032264020998	0.007628807407
0	9612	89.039892828405	0.298311784988
0	9621	89.338204613393	0.100475430835
0	9628	89.438680044228	0.022540490531
0	9633	89.461220534759	0.029109052657
0	9639	89.490329587416	0.002314475296
0	9641	89.492644062712	0.033316543801
0	9649	89.525960606513	0.019674119848
0	9654	89.545634726361	0.029743812795
0	9660	89.575378539156	0.034349781795
0	9665	89.609728320951	0.041948664146
0	9670	89.651676985097	0.009448925836
0	9675	89.661125910933	0.048533287392
0	9681	89.709659198325	0.004445718117
0	9683	89.714104916442	0.034475646096
0	9691	89.748580562538	0.0301405454
0	9696	89.778721107938	0.100790873217
0	9705	89.879511981155	0.134904152148
0	9711	90.014416133303	0.049407432658
0	9717	90.063823565961	0.07201958025
0	9722	90.135843146211	0.025660419062
0	9728	90.161503565273	0.018660986418
0	9734	90.180164551691	0.026951975427
0	9739	90.207116527118	0.109738352439
0	9745	90.316854879557	0.083257736369
0	9750	90.400112615926	0.059746406669
0	9755	90.459859022595	0.021400257523
0	9760	90.481259280118	0.031119901217
0	9765	90.512379181335	0.011878277147
0	9770	90.524257458482	0.015368363638
0	9776	90.53962582212	0.003060971606
0	9778	90.542686793726	0.042846155074
0	9787	90.5855329488	0.104384513157
0	9793	90.689917461957	0.010839501287
0	9798	90.700756963244	0.125386116763
0	9805	90.826143080007	0.067591104303
0	9810	90.89373418431	0.006398497243
0	9812	90.900132681553	0.138173822029
0	9821	91.038306503582	0.020358859027
0	9826	91.058665362609	0.053832932443
0	9832	91.112498295052	0.00964114944
0	9837	91.122139444492	0.064548135279
0	9843	91.186687579771	0.006159168614
0	9845	91.192846748385	0.008985552962
0	9850	91.201832301347	0.115062668302
0	9858	91.316894969649	0.068960767537
0	9864	91.385855737186	0.002927942416
0	9866	91.388783679602	0.034393738574
0	9874	91.423177418176	0.196830306491
0	9882	91.620007724667	0.004571932402
0	9884	91.624579657069	0.00507123917
0	9889	91.629650896239	0.02442446432
0	9898	91.654075360559	0.099560782025
0	9903	91.753636142584	0.06536456925
0	9908	91.819000711834	0.041793878377
0	9913	91.860794590211	0.043162427213
0	9919	91.903957017424	0.022936767067
0	9924	91.926893784491	0.018291741957
0	9929	91.945185526448	0.020953540178
0	9934	91.966139066626	0.224364920562
0	9941	92.190503987188	0.070809674025
0	9946	92.261313661213	0.042669534311
0	9952	92.303983195524	0.018885685277
0	9957	92.322868880801	0.144974932684
0	9964	92.467843813485	0.053547752319
0	9971	92.521391565804	0.041023378396
0	9977	92.5624149442	0.03642069877
0	9982	92.59883564297	0.041582147635
0	9987	92.640417790605	0.033176084247
0	9992	92.673593874852	0.002626304518
0	9994	92.67622017937	0.115713744931
0	10003	92.791933924301	0.005495138759
0	10005	92.79742906306	0.040444184431
0	10013	92.837873247491	0.047652671309
0	10018	92.8855259188	0.087683200867
0	10023	92.973209119667	0.065770124628
0	10028	93.038979244295	0.064653596894
0	10034	93.103632841189	0.01398784012
0	10039	93.117620681309	0.001966012496
0	10041	93.119586693805	0.16617810632
0	10051	93.285764800125	0.074164509915
0	10057	93.35992931004	0.067592342845
0	10062	93.427521652885	0.01222284463
0	10067	93.439744497515	0.013591175951
0	10072	93.453335673466	0.116729411103
0	10078	93.570065084569	0.051700291137
0	10084	93.621765375706	0.002193633898
0	10086	93.623959009604	0.020757319724
0	10094	93.644716329328	0.020253661459
0	10099	93.664969990787	0.065002300459
0	10105	93.729972291246	0.005253191645
0	10107	93.735225482891	0.043924774525
0	10115	93.779150257416	0.032273988551
0	10121	93.811424245967	0.070663490764
0	10128	93.882087736731	0.085746155205
0	10133	93.967833891936	0.014481784896
0	10138	93.982315676832	0.017704440005
0	10143	94.000020116837	0.134629993383
0	10149	94.13465011022	0.008180970676
0	10154	94.142831080896	0.248101637245
0	10164	94.390932718141	0.020043810682
0	10170	94.410976528823	0.008988204409
0	10175	94.419964733232	0.084068219762
0	10180	94.504032952994	0.035964838614
0	10185	94.539997791608	0.007563472252
0	10187	94.54756126386	0.099562824567
0	10196	94.647124088427	0.012897261464
0	10201	94.660021349891	0.021362380815
0	10206	94.681383730706	0.003566850321
0	10208	94.684950581027	0.01389565234
0	10216	94.698846233367	0.061159487028
0	10221	94.760005720395	0.065664317767
0	10228	94.825670038162	0.025145620834
0	10233	94.850815658996	0.189751616686
0	10238	95.040567275682	0.018614089157
0	10243	95.059181364839	0.035033552108
0	10249	95.094214916947	0.063403596193
0	10254	95.15761851314	0.024914440861
0	10259	95.182532954001	0.020471965633
0	10264	95.203004919634	0.024873498871
0	10270	95.227878418505	0.065055631893
0	10276	95.292934050398	0.079117032514
0	10282	95.372051082912	0.084423891401
0	10290	95.456474974313	0.061219151799
0	10295	95.517694126112	0.012273474107
0	10300	95.529967600219	0.019203578585
0	10305	95.549171178804	0.182135484401
0	10311	95.731306663205	0.183627979262
0	10316	95.914934642467	0.008858220546
0	10321	95.923792863013	0.111087360125
0	10328	96.034880223138	0.01718376925
0	10334	96.052063992388	0.060353558045
0	10340	96.112417550433	0.009910066028
0	10345	96.122327616461	0.029060365156
0	10350	96.151387981617	0.021194617016
0	10355	96.172582598633	0.011615268207
0	10360	96.18419786684	0.032702178126
0	10365	96.216900044966	0.054675968857
0	10370	96.271576013823	0.036925626851
0	10378	96.308501640674	0.07009884735
0	10385	96.378600488024	0.096072696799
0	10391	96.474673184823	0.046326845527
0	10396	96.52100003035	0.110113422272
0	10401	96.631113452622	0.034220947078
0	10406	96.6653343997	0.012429726214
0	10411	96.677764125914	0.006280517467
0	10413	96.684044643381	0.048761452122
0	10422	96.732806095503	0.076793243289
0	10427	96.809599338792	0.005910809752
0	10429	96.815510148544	0.033823493993
0	10440	96.849333642537	0.030714013931
0	10445	96.880047656468	0.096246791883
0	10450	96.976294448351	0.01945500292
0	10455	96.995749451271	0.007240806724
0	10457	97.002990257995	0.019026485505
0	10465	97.0220167435	0.167748218968
0	10470	97.189764962468	0.032945427342
0	10475	97.22271038981	0.033785115788
0	10481	97.256495505598	0.065434757987
0	10486	97.321930263585	0.003755058543
0	10488	97.325685322128	0.003584610903
0	10490	97.329269933031	0.016433102883
0	10498	97.345703035914	0.105669914214
0	10507	97.451372950128	0.116436294359
0	10514	97.567809244487	0.066366148624
0	10521	97.634175393111	0.020324628378
0	10526	97.654500021489	0.009709548939
0	10531	97.664209570428	0.175458230457
0	10537	97.839667800885	0.139976138423
0	10543	97.979643939308	0.029360268565
0	10550	98.009004207873	0.035292599756
0	10556	98.044296807629	0.022867895573
0	10561	98.067164703202	0.428050912966
0	10569	98.495215616168	0.077977564086
0	10576	98.573193180254	0.010986187275
0	10581	98.584179367529	0.031472895067
0	10586	98.615652262596	0.038276023692
0	10592	98.653928286288	0.003928711348
0	10594	98.657856997636	0.017141986293
0	10602	98.674998983929	0.088258088979
0	10607	98.763257072908	0.018132750652
0	10612	98.78138982356	0.07814257772
0	10617	98.85953240128	0.044709999511
0	10623	98.904242400791	0.036179588405
0	10628	98.940421989196	0.127372562545
0	10635	99.067794551741	0.000486525297
0	10637	99.068281077038	0.08180548703
0	10646	99.150086564068	0.007329789628
0	10651	99.157416353696	0.064357105291
0	10656	99.221773458987	0.06223810394
0	10662	99.284011562927	0.040955227169
0	10667	99.324966790096	0.044684594587
0	10673	99.369651384683	0.127744039487
0	10680	99.49739542417	0.060206058006
0	10685	99.557601482176	0.033899276086
0	10691	99.591500758262	0.022387413738
0	10696	99.613888172	0.103507116908
0	10702	99.717395288908	0.049628455892
0	10707	99.7670237448	0.089782846942
0	10712	99.856806591742	0.0285311379
0	10717	99.885337729642	0.012029451388
0	10722	99.89736718103	0.026704799398
0	10727	99.924071980428	0.073750915729
0	10734	99.997822896157	0.026809959507
0	10739	100.024632855664	0.000612291942
0	10741	100.025245147606	0.001629032679
0	10743	100.026874180285	0.019491612326
0	10751	100.046365792611	0.003146724093
0	10756	100.049512516704	0.013040157811
0	10764	100.062552674515	0.094629566453
0	10772	100.157182240968	0.035348408203
0	10778	100.192530649171	0.059458403725
0	10783	100.251989052896	0.066752154216
0	10788	100.318741207112	0.013094979529
0	10793	100.331836186641	0.005139101601
0	10795	100.336975288242	0.006285344438
0	10800	100.34326063268	0.036172300003
0	10808	100.379432932683	0.00207810594
0	10810	100.381511038623	0.139364431634
0	10818	100.520875470257	0.032668173361
0	10823	100.553543643618	0.012980428984
0	10828	100.566524072602	0.04433260673
0	10833	100.610856679332	0.056527001506
0	10838	100.667383680838	0.114117528249
0	10843	100.781501209087	0.044932397735
0	10849	100.826433606822	0.126456571998
0	10854	100.95289017882	0.000505733781
0	10856	100.953395912601	0.022804588286
0	10865	100.976200500887	0.032296597679
0	10870	101.008497098566	0.133566233521
0	10875	101.142063332087	0.06168216388
0	10880	101.203745495967	0.039458608288
0	10885	101.243204104255	0.002248583397
0	10887	101.245452687652	0.042676583517
0	10895	101.288129271169	0.105814192402
0	10900	101.393943463571	0.009839423306
0	10905	101.403782886877	0.036706940817
0	10910	101.440489827694	0.006157075346
0	10912	101.44664690304	0.001557046672
0	10917	101.448203949712	0.014010573905
0	10923	101.462214523617	0.012706795643
0	10931	101.47492131926	0.006635951492
0	10933	101.481557270752	0.153604432011
0	10941	101.635161702763	0.012634518846
0	10946	101.647796221609	0.043651952586
0	10952	101.691448174195	0.038806158881
0	10957	101.730254333076	0.005684901421
0	10959	101.735939234497	0.101344347854
0	10968	101.837283582351	0.016951891383
0	10974	101.854235473734	0.079234285342
0	10979	101.933469759076	0.03050501511
0	10984	101.963974774186	0.00164456349
0	10986	101.965619337676	0.001058631593
0	10988	101.966677969269	0.059958784803
0	10999	102.026636754072	0.026518733244
0	11005	102.053155487316	0.002396095855
0	11007	102.055551583171	0.033614180583
0	11015	102.089165763754	0.311371608399
0	11022	102.400537372153	0.013964395101
0	11027	102.414501767254	0.076650320289
0	11032	102.491152087543	0.044414205108
0	11039	102.535566292651	0.01315804483
0	11044	102.548724337481	0.069966978121
0	11050	102.618691315602	0.033678039523
0	11055	102.652369355125	0.013448526417
0	11060	102.665817881542	0.068148666585
0	11065	102.733966548127	0.048445020145
0	11070	102.782411568272	0.091568649005
0	11076	102.873980217277	0.051030124233
0	11081	102.92501034151	0.012994097604
0	11086	102.938004439114	0.148347816354
0	11091	103.086352255468	0.00719056774
0	11093	103.093542823208	0.075316133113
0	11101	103.168858956321	0.133737969693
0	11106	103.302596926014	0.094307441345
0	11114	103.396904367359	0.055548667318
0	11119	103.452453034677	0.033708411473
0	11124	103.48616144615	0.104488694384
0	11130	103.590650140534	0.010249748703
0	11135	103.600899889237	0.013223228096
0	11140	103.614123117333	0.27381594257
0	11147	103.887939059903	0.006888252177
0	11149	103.89482731208	0.006926092106
0	11154	103.901753404186	0.021564166607
0	11162	103.923317570793	0.031881585963
0	11167	103.955199156756	0.01456442417
0	11172	103.969763580926	0.00352611823
0	11174	103.973289699156	0.003776823045
0	11176	103.977066522201	0.143987189067
0	11188	104.121053711268	0.051708561938
0	11193	104.172762273206	0.167513255285
0	11199	104.340275528491	0.014464966408
0	11204	104.354740494899	0.063539305969
0	11209	104.418279800868	0.029912260768
0	11214	104.448192061636	0.021538595654
0	11219	104.46973065729	0.017004979157
0	11224	104.486735636447	0.014677120167
0	11229	104.501412756614	0.127037171859
0	11235	104.628449928473	0.015414877563
0	11240	104.643864806036	0.029910868738
0	11245	104.673775674774	0.006807828669
0	11247	104.680583503443	0.105953497639
0	11255	104.786537001082	0.03730724985
0	11260	104.823844250932	0.002250724041
0	11262	104.826094974973	0.007646911837
0	11267	104.83374188681	0.038372196152
0	11275	104.872114082962	0.019043307718
0	11281	104.89115739068	0.030140695219
0	11286	104.921298085899	0.049269512228
0	11292	104.970567598127	0.019734989961
0	11297	104.990302588088	0.065013836473
0	11302	105.055316424561	0.017847281814
0	11307	105.073163706375	0.001228607289
0	11309	105.074392313664	0.015516030735
0	11317	105.089908344399	0.028116121248
0	11322	105.118024465647	0.011127781849
0	11327	105.129152247496	0.052795544966
0	11332	105.181947792462	0.033925977424
0	11337	105.215873769886	0.095949871234
0	11342	105.31182364112	0.021166520303
0	11348	105.332990161423	0.032248791884
0	11353	105.365238953307	0.020068713761
0	11358	105.385307667068	0.174021571018
0	11364	105.559329238086	0.003425034089
0	11366	105.562754272175	0.015437288397
0	11374	105.578191560572	0.000698103413
0	11376	105.578889663985	0.000680038799
0	11378	105.579569702784	0.121326277956
0	11390	105.70089598074	0.033058484206
0	11395	105.733954464946	0.026701167036
0	11400	105.760655631982	0.014793360359
0	11405	105.775448992341	0.056512041946
0	11410	105.831961034287	0.086783422475
0	11418	105.918744456762	0.030110414703
0	11423	105.948854871465	0.013248606786
0	11428	105.962103478251	0.011197048022
0	11433	105.973300526273	0.018598800421
0	11438	105.991899326694	0.132589531271
0	11443	106.124488857965	0.078325490259
0	11448	106.202814348224	0.006543146789
0	11450	106.209357495013	0.06278844309
0	11458	106.272145938103	0.032828732124
0	11463	106.304974670227	0.040828066554
0	11468	106.345802736781	0.004810574708
0	11470	106.350613311489	0.061030193593
0	11479	106.411643505082	0.013021253474
0	11484	106.424664758556	0.027118984686
0	11489	106.451783743242	0.057825038308
0	11494	106.50960878155	0.00026620992
0	11496	106.50987499147	0.037370933776
0	11504	106.547245925246	0.000571004327
0	11506	106.547816929573	0.039931441522
0	11514	106.587748371095	0.035792322366
0	11519	106.623540693461	0.089260705879
0	11525	106.71280139934	0.004348258884
0	11527	106.717149658224	0.003135178613
0	11532	106.720284836837	0.002621300943
0	11534	106.72290613778	0.117602794254
0	11548	106.840508932034	0.16836391561
0	11553	107.008872847644	0.052666780677
0	11558	107.061539628321	0.097950706024
0	11563	107.159490334345	0.05120873895
0	11568	107.210699073295	0.008245337797
0	11573	107.218944411092	0.001533693784
0	11575	107.220478104876	3.3221811e-05
0	11577	107.220511326687	0.120437637035
0	11589	107.340948963722	0.142080047792
0	11595	107.483029011514	0.001419047439
0	11597	107.484448058953	0.016309039876
0	11606	107.500757098829	0.010255848776
0	11612	107.511012947605	0.010283455998
0	11617	107.521296403603	0.113125540189
0	11622	107.634421943792	0.058802986361
0	11628	107.693224930153	0.006775391382
0	11630	107.700000321535	0.005765141193
0	11635	107.705765462728	0.0253739082
0	11643	107.731139370928	0.015370407508
0	11648	107.746509778436	0.071366068234
0	11658	107.81787584667	0.184633686061
0	11663	108.002509532731	0.041385091088
0	11669	108.043894623819	0.051008003068
0	11674	108.094902626887	0.065555273183
0	11680	108.16045790007	0.036769112119
0	11685	108.197227012189	0.01071204609
0	11690	108.207939058279	0.025368132804
0	11695	108.233307191083	0.026555875956
0	11700	108.259863067039	0.074471968505
0	11706	108.334335035544	0.03449642859
0	11712	108.368831464134	0.00759684293
0	11714	108.376428307064	0.013960801914
0	11722	108.390389108978	0.171076837308
0	11728	108.561465946286	0.308709853648
0	11734	108.870175799934	0.098708334516
0	11740	108.96888413445	0.055602444318
0	11746	109.024486578768	0.048071855295
0	11751	109.072558434063	0.107613276629
0	11757	109.180171710692	0.002192693584
0	11759	109.182364404276	0.024958587669
0	11767	109.207322991945	0.060341451065
0	11774	109.26766444301	0.129406683319
0	11780	109.397071126329	0.122256042085
0	11785	109.519327168414	0.01449267178
0	11790	109.533819840194	0.037177524366
0	11795	109.57099736456	0.008591867739
0	11800	109.579589232299	0.021865192802
0	11806	109.601454425101	0.077290310446
0	11812	109.678744735547	0.006407429295
0	11814	109.685152164842	0.180626727161
0	11823	109.865778892003	0.070304675853
0	11828	109.936083567856	0.003202175904
0	11830	109.93928574376	0.108150659953
0	11838	110.047436403713	0.005268174619
0	11840	110.052704578332	0.005282013778
0	11845	110.05798659211	0.019128793703
0	11853	110.077115385813	0.071144713074
0	11858	110.148260098887	0.037322223626
0	11863	110.185582322513	0.000860384657
0	11865	110.18644270717	0.060915638808
0	11874	110.247358345978	0.170645663134
0	11880	110.418004009112	0.155670134023
0	11886	110.573674143135	0.047733133411
0	11891	110.621407276546	0.006267943133
0	11893	110.627675219679	0.040197128387
0	11901	110.667872348066	0.022027289008
0	11907	110.689899637074	0.017545283585
0	11912	110.707444920659	0.015481661289
0	11917	110.722926581948	0.132459596193
0	11923	110.855386178141	0.082361800152
0	11929	110.937747978293	0.01545588451
0	11934	110.953203862803	0.008929952153
0	11939	110.962133814956	0.088055677181
0	11945	111.050189492137	0.104713372377
0	11952	111.154902864514	0.210348831015
0	11957	111.365251695529	0.074296984175
0	11962	111.439548679704	0.076484371733
0	11969	111.516033051437	0.107630140982
0	11974	111.623663192419	0.036593351976
0	11979	111.660256544395	0.173959709896
0	11985	111.834216254291	0.003417917747
0	11987	111.837634172038	0.042600573871
0	11995	111.880234745909	0.03197214967
0	12000	111.912206895579	0.030662526076
0	12006	111.942869421655	0.028835447755
[...]
19	10127	93.869514600701	3.6784896511766
19	10512	97.548004251878	1.6973053735577
19	10661	99.245309625436	0.83602675956111
19	10770	100.081336384997	6.6177670506565
19	11524	106.699103435653	1.5829049516019
19	11705	108.282008387255	2.3959771958644
19	11906	110.677985583119	2.1203906291115
19	12117	112.79837621223	1.7616321737704
19	12260	114.560008386	0.95192476751353
19	12366	115.511933153514	2.0243008985026
19	12611	117.536234052017	1.7923834996353
19	12789	119.328617551652	0.10481340523609
19	12795	119.433430956888	1.4024472025985
19	12917	120.835878159487	5.1295297198449
19	13493	125.965407879332	0.93108186167422
19	13562	126.896489741006	0.13211957171486
19	13569	127.028609312721	3.3481416315434
19	13877	130.376750944264	2.7998685325513
19	14153	133.176619476815	5.5927429712787
19	14786	138.769362448094	5.0848532443368
19	15285	143.854215692431	0.81336063704297
19	15364	144.667576329474	0.10838410920285
19	15365	144.775960438677	1.29934828234
19	15498	146.075308721017	3.3093372222774
19	15840	149.384645943294	1.9565515976584
19	16078	151.341197540952	0.56519650104856
19	16127	151.906394042001	0.24125048321735
19	16148	152.147644525218	2.5238643195257
19	16374	154.671508844744	0.21318921811845
19	16400	154.884698062862	0.60274449316239
19	16473	155.487442556024	2.6105828311094
19	16689	158.098025387133	0.44677801806575
19	16770	158.544803405199	0.62835931457599
19	16830	159.173162719775	1.0764920836131
19	16908	160.249654803388	9.1765657172727
19	17912	169.426220520661	2.01154911814
19	18118	171.437769638801	6.300077029643
19	18867	177.737846668444	2.5518157585301
19	19186	180.289662426974	1.1612261493072
19	19321	181.450888576281	1.3922062484568
19	19449	182.843094824738	1.3000451792558
19	19562	184.143140003994	1.2304887149089
19	19665	185.373628718903	7.8326826701612
19	20480	193.206311389064	1.2480007339362
19	20608	194.454312123	1.0886578230139
19	20730	195.542969946014	1.1445042030991
19	20871	196.687474149113	0.25638448307699
19	20898	196.94385863219	3.9283718383597
19	21325	200.87223047055	2.6838671192335
19	21591	203.556097589784	0.07654928452845
19	21594	203.632646874312	1.7626978601818
19	21852	205.395344734494	0.0044229649301406
19	21853	205.399767699424	0.7793591496945
19	21941	206.179126849118	0.031694048159055
19	21945	206.210820897277	1.9467025437684
19	22173	208.157523441045	0.13352520196173
19	22180	208.291048643007	2.5812533505423
19	22459	210.872301993549	0.71492383829995
19	22579	211.587225831849	0.93152737022199
19	22669	212.518753202071	0.026174449324669
19	22674	212.544927651396	0.71496034659273
19	22777	213.259887997989	1.2195980193557
19	22890	214.479486017345	10.878397109943
19	24010	225.357883127288	0.27152136084669
19	24048	225.629404488135	3.756913843531
19	24398	229.386318331666	2.353485745251
19	24602	231.739804076917	0.33855809312689
19	24643	232.078362170044	5.8366961405557
19	25208	237.9150583106	3.8373657436998
19	25591	241.7524240543	2.3760243878909
19	25843	244.128448442191	1.1330346270765
19	25999	245.261483069268	2.2879429647244
19	26274	247.549426033992	0.53604008210896
19	26334	248.085466116101	2.3613893099645
19	26532	250.446855426065	2.4628842368191
19	26796	252.909739662884	1.3567819793427
19	26972	254.266521642227	0.064093626154289
19	26978	254.330615268381	7.0040694229881
19	27729	261.334684691369	3.901489254897
19	28153	265.236173946266	1.9158900472749
19	28352	267.152063993541	0.011542819199252
19	28361	267.16360681274	0.081547160592847
19	28365	267.245153973333	5.4090320506197
19	28892	272.654186023953	0.22568493979579
19	28923	272.879870963749	1.779850668324
19	29069	274.659721632073	3.6210491415504
19	29478	278.280770773623	10.576249459216
19	30560	288.857020232839	0.14333698242633
19	30572	289.000357215265	2.4991681561352
19	30809	291.4995253714	1.2103047515327
19	30904	292.709830122933	0.47394420217428
19	30962	293.183774325107	0.42590724421395
19	30991	293.609681569321	1.7767408612472
19	31256	295.386422430568	0.98664408123532
19	31337	296.373066511803	0.97003463451043
19	31411	297.343101146313	2.2631934582314
19	31637	299.606294604544	2.8622547490757
19	31927	302.46854935362	8.1582953421709
19	32841	310.626844695791	4.1753456319698
19	33279	314.802190327761	0.66473242679958
19	33336	315.466922754561	1.6348067546983
19	33535	317.101729509259	0.56848802808305
19	33584	317.670217537342	0.046884325187666
19	33585	317.71710186253	5.4703386740337
19	34184	323.187440536564	0.77196638365709
19	34294	323.959406920221	1.2217043038744
19	34443	325.181111224095	1.7667487209356
19	34633	326.947859945031	0.6050066303569
19	34714	327.552866575388	0.030814386961685
19	34718	327.58368096235	3.7437169005509
19	35131	331.327397862901	6.2255168264916
19	35742	337.552914689393	2.8279871420371
19	36041	340.38090183143	0.059905247757052
19	36043	340.440807079187	0.078294299366285
19	36049	340.519101378553	2.2192278405889
19	36304	342.738329219142	0.83629428285852
19	36396	343.574623502001	3.0250750757931
19	36668	346.599698577794	4.406962572055
19	37164	351.006661149849	0.85000404231722
19	37284	351.856665192166	0.1619442610787
19	37303	352.018609453245	0.070623450293036
19	37312	352.089232903538	0.1383698795435
19	37339	352.227602783081	2.1807583669194
19	37538	354.40836115	2.410463963629
19	37765	356.818825113629	0.39408633326354
19	37814	357.212911446893	4.430276253944
19	38310	361.643187700837	1.7425774233859
19	38543	363.385765124223	2.1869007905038
19	38770	365.572665914727	3.6715917738429
19	39176	369.24425768857	0.79277058188977
19	39271	370.03702827046	0.7235791987713
19	39366	370.760607469231	1.97128459824
19	39570	372.731892067471	0.82609708158421
19	39662	373.557989149055	0.4677768029308
19	39723	374.025765951986	0.91372287744249
19	39826	374.939488829428	2.1595231022331
19	40074	377.099011931661	4.7520098959429
19	40663	381.851021827604	2.6116347165699
19	40882	384.462656544174	0.30285631580643
19	40920	384.76551285998	5.1712971516882
19	41472	389.936810011668	3.5863032055098
19	41904	393.523113217178	3.1876743604085
19	42275	396.710787577586	0.40672315452253
19	42330	397.117510732109	1.5616289120776
19	42499	398.679139644187	3.6673048830476
20	1615	15.024378639984	1.1644818461698
20	1702	16.188860486154	1.7049541577859
20	1912	17.89381464394	1.7478273612198
20	2066	19.64164200516	0.86425040909274
20	2176	20.505892414253	0.9615401633244
20	2276	21.467432577577	0.52113526543221
20	2330	21.988567843009	1.7954108434221
20	2505	23.783978686431	1.2957488904539
20	2688	25.079727576885	0.91965529419056
20	2784	25.999382871076	3.2011604020178
20	3070	29.200543273094	1.3438134009302
20	3208	30.544356674024	0.41313131418718
20	3233	30.957487988211	0.4784629692644
20	3301	31.435950957475	1.4466321064143
20	3500	32.882583063889	0.52823905835688
20	3570	33.410822122246	0.49510296444885
20	3627	33.905925086695	2.7076934077527
20	3973	36.613618494448	1.0055520832581
20	4094	37.619170577706	1.7694591402416
20	4243	39.388629717948	2.806319185498
20	4594	42.194948903446	4.3400879017888
20	5017	46.535036805235	1.3911661103097
20	5166	47.926202915545	0.84959602801909
20	5252	48.775798943564	3.0523363849379
20	5564	51.828135328502	0.46082399978017
20	5599	52.288959328282	1.0525542597689
20	5756	53.341513588051	0.49918353188862
20	5814	53.84069711994	2.8212807260891
20	6071	56.661977846029	0.084289732081012
20	6089	56.74626757811	0.39278374437637
20	6117	57.139051322486	0.40346467025279
20	6151	57.542515992739	0.83001075750906
20	6245	58.372526750248	3.1236187349014
20	6595	61.496145485149	2.5312341792648
20	6803	64.027379664414	1.4447485468314
20	6965	65.472128211245	3.4991342304001
20	7371	68.971262441645	1.4957915045275
20	7526	70.467053946173	1.1477789478299
20	7710	71.614832894003	5.7091812724551
20	8299	77.324014166458	0.58484865381325
20	8340	77.908862820271	0.84617890676039
20	8446	78.755041727031	0.38789052710095
20	8490	79.142932254132	0.82730295801347
20	8591	79.970235212145	2.0926770414117
20	8815	82.062912253557	1.8888110488771
20	9080	83.951723302434	3.770401397929
20	9499	87.722124700363	2.4449730973875
20	9730	90.16709779775	3.0351539142923
20	10049	93.202251712042	2.2035639049986
20	10288	95.405815617041	4.6741390890701
20	10769	100.079954706111	0.88169699243849
20	10861	100.961651698549	2.6995538931646
20	11145	103.661205591714	0.091599894585631
20	11146	103.7528054863	5.5046070183616
20	11772	109.257412504662	5.6322390094303
20	12300	114.889651514092	8.0435321763417
20	13171	122.933183690434	2.8678158280841
20	13475	125.800999518518	2.471353088248
20	13686	128.272352606766	5.3110223749635
20	14197	133.583374981729	0.39963898926503
20	14259	133.983013970994	1.7109181080052
20	14396	135.693932078999	0.71579958856995
20	14477	136.409731667569	12.73031428991
20	15828	149.140045957479	4.3725178891211
20	16277	153.5125638466	0.75927936994109
20	16351	154.271843216541	2.4734659720449
20	16585	156.745309188586	0.43345152751129
20	16613	157.178760716097	1.9455017718813
20	16828	159.124262487978	2.2673954179348
20	17066	161.391657905913	3.4656294110697
20	17415	164.857287316983	2.7516322457306
20	17738	167.608919562714	1.0552123628935
20	17849	168.664131925608	4.6690898530367
20	18316	173.333221778645	0.10418111674765
20	18337	173.437402895393	4.0808382910719
20	18848	177.518241186465	10.004314712601
20	19841	187.522555899066	2.1561386156505
20	20080	189.678694514716	0.95838639767766
20	20179	190.637080912394	0.55726565578794
20	20259	191.194346568182	2.4211715104592
20	20518	193.615518078641	4.4657113787524
20	21025	198.081229457393	5.1224650652206
20	21547	203.203694522614	0.021135659556045
20	21553	203.22483018217	4.5071482336868
20	22107	207.731978415857	3.611998431934
20	22542	211.343976847791	8.2636054419485
20	23441	219.60758228974	7.1534941936363
20	24168	226.761076483376	2.259350699992
20	24367	229.020427183368	0.16692826887671
20	24373	229.187355452245	1.0100862972544
20	24458	230.197441749499	0.95071324206655
20	24544	231.148154991566	0.00077673227493106
20	24545	231.148931723841	0.6144518894112
20	24606	231.763383613252	0.63313985019229
20	24683	232.396523463444	0.14913749610228
20	24694	232.545660959546	1.3725452478276
20	24805	233.918206207374	1.4504356030721
20	24973	235.368641810446	1.3424987220761
20	25085	236.711140532522	0.81194578349414
20	25180	237.523086316016	4.1152070627947
20	25588	241.638293378811	0.6477889108985
20	25644	242.28608228971	9.2906786094632
20	26669	251.576760899173	0.63222508393239
20	26724	252.208985983105	3.9724577575605
20	27187	256.181443740665	0.42943740296606
20	27240	256.610881143631	0.5652468599168
20	27296	257.176128003548	1.4166656426237
20	27466	258.592793646172	2.4927348244058
20	27701	261.085528470578	2.8765638023219
20	27994	263.9620922729	1.4069792281552
20	28167	265.369071501055	0.97471209624397
20	28269	266.343783597299	0.262718587884
20	28287	266.606502185183	4.2165629335339
20	28728	270.823065118717	1.6425963715033
20	28855	272.46566149022	3.2507178318258
20	29205	275.716379322046	3.6404958181302
20	29596	279.356875140176	5.1022916448939
20	30129	284.45916678507	0.86821062916925
20	30213	285.327377414239	0.48426944063708
20	30286	285.811646854876	0.87353629664263
20	30382	286.685183151519	2.4088612024284
20	30595	289.094044353947	0.84607318137243
20	30665	289.940117535319	4.5300875939983
20	31122	294.470205129317	0.76373152444059
20	31235	295.233936653758	5.1144680499373
20	31731	300.348404703695	0.33747353970496
20	31752	300.6858782434	2.8928741626263
20	32043	303.578752406026	0.85804485626908
20	32137	304.436797262295	2.4571513725707
20	32429	306.893948634866	8.7377055736747
20	33354	315.631654208541	2.8800592896838
20	33677	318.511713498225	1.6409233553955
20	33889	320.15263685362	6.4510014782946
20	34586	326.603638331915	0.56894021955576
20	34654	327.172578551471	0.44949451872414
20	34724	327.622073070195	0.62877056419052
20	34817	328.250843634386	1.8459879017797
20	35009	330.096831536166	1.9008926168485
20	35186	331.997724153014	3.7192416205356
20	35575	335.71696577355	5.1250463083873
20	36093	340.842012081937	3.3700637127143
20	36439	344.212075794651	0.10048330617026
20	36445	344.312559100821	1.1895257249807
20	36556	345.502084825802	0.28486335280397
20	36578	345.786948178606	0.19866072139252
20	36596	345.985608899999	3.7779907138001
20	37026	349.763599613799	1.743721473815
20	37222	351.507321087614	2.5791748995689
20	37516	354.086495987183	4.5590690450657
20	37953	358.645565032249	0.74623519915997
20	38009	359.391800231409	0.23653856581252
20	38043	359.628338797222	0.044179766400271
20	38046	359.672518563622	3.0621909687639
20	38477	362.734709532386	0.89886409588163
20	38580	363.633573628268	0.76920698378356
20	38629	364.402780612052	2.8959156059761
20	38967	367.298696218028	0.7623025695629
20	39014	368.060998787591	2.1589125228141
20	39300	370.219911310405	1.3230609071116
20	39439	371.542972217517	4.5370676978764
20	39974	376.080039915393	3.594609732236
20	40439	379.674649647629	9.5354885144384
20	41390	389.210138162067	1.2117729605823
20	41504	390.421911122649	2.7547759713875
20	41851	393.176687094036	0.56922205189622
20	41920	393.745909145932	0.07554497691304
20	41923	393.821454122845	2.131659175809
20	42187	395.953113298654	1.1316296754961
20	42324	397.08474297415	2.9533590036812
21	1778	16.789292064346	0.011119696765478
21	1779	16.800411761111	0.95352666251396
21	1901	17.753938423625	0.89891990751664
21	1988	18.652858331142	0.98048917213335
21	2060	19.633347503275	3.5016343897023
21	2435	23.134981892977	4.2682555543311
21	2923	27.403237447308	1.5538904045202
21	3059	28.957127851828	1.5376980053238
21	3202	30.494825857152	5.5055108047653
21	3909	36.000336661917	0.99051382845412
21	4021	36.990850490371	0.061677841522748
21	4027	37.052528331894	4.1792497053432
21	4508	41.231778037237	0.55722475736083
21	4560	41.789002794598	2.261071380475
21	4779	44.050074175073	5.6418946182346
21	5329	49.691968793308	3.3858472534381
21	5707	53.077816046746	0.22675714934112
21	5755	53.304573196087	7.2992687259162
21	6489	60.603841922003	0.38650016718713
21	6532	60.99034208919	7.2650977664622
21	7299	68.255439855652	4.4729615721159
21	7835	72.728401427768	4.2612221258373
21	8286	76.989623553605	4.0093412475759
21	8700	80.998964801181	2.3375451650497
21	9010	83.336509966231	2.1081987459075
21	9238	85.444708712139	1.9953671025707
21	9457	87.44007581471	1.9831574450451
21	9627	89.423233259755	0.43331508309471
21	9704	89.85654834285	1.7343987273145
21	9881	91.590947070164	0.30109585254992
21	9918	91.892042922714	0.62019865897923
21	9969	92.512241581693	1.8177195392224
21	10163	94.329961120915	1.960587485038
21	10375	96.290548605953	3.2832530175461
21	10690	99.573801623499	2.2017883879398
21	10967	101.775590011439	7.1995671927869
21	11742	108.975157204226	0.34059241850402
21	11779	109.31574962273	1.4992594996199
21	11922	110.81500912235	2.3457706739456
21	12141	113.160779796296	1.1422931978135
21	12231	114.303072994109	0.55807051977276
21	12289	114.861143513882	5.3000110301624
21	12861	120.161154544044	0.80925016025244
21	12940	120.970404704296	5.1544436906058
21	13500	126.124848394902	0.61451719207303
21	13560	126.739365586975	2.0869388403254
21	13707	128.8263044273	1.2860686223276
21	13835	130.112373049628	3.3777233734321
21	14186	133.49009642306	0.89432003810575
21	14289	134.384416461166	0.5265636569781
21	14324	134.910980118144	1.3456848651735
21	14454	136.256664983317	0.48827769744425
21	14523	136.744942680761	1.5933571101794
21	14750	138.33829979094	9.0615422410237
21	15629	147.399842031964	0.76583529053333
21	15720	148.165677322497	0.26626325138455
21	15752	148.431940573882	7.75034962798
21	16538	156.182290201862	1.1691004706697
21	16626	157.351390672532	1.2724554382286
21	16776	158.623846110761	2.6372267583069
21	17045	161.261072869068	4.5819080811145
21	17529	165.842980950182	3.5650078191087
21	17911	169.407988769291	2.1638695450143
21	18127	171.571858314305	0.041557998017274
21	18129	171.613416312322	0.21204001837263
21	18151	171.825456330695	1.7561371866686
21	18339	173.581593517364	1.3984166410147
21	18529	174.980010158379	2.8543454414312
21	18878	177.83435559981	6.065869504202
21	19540	183.900225104012	5.6719723036096
21	20079	189.572197407622	1.6166802196077
21	20258	191.18887762723	1.1506527050952
21	20372	192.339530332325	0.18648226431889
21	20387	192.526012596644	1.3202918609578
21	20557	193.846304457602	0.57011273901757
21	20607	194.41641719662	2.481960539324
21	20897	196.898377735944	0.30498741651239
21	20910	197.203365152456	1.0015822097735
21	21040	198.20494736223	3.438702527906
21	21385	201.643649890136	2.550560421597
21	21665	204.194210311733	0.1804325102945
21	21688	204.374642822027	1.5686786192741
21	21896	205.943321441301	0.77729761024982
21	22014	206.720619051551	1.6471117961027
21	22185	208.367730847654	0.66027041120527
21	22258	209.028001258859	1.619468853425
21	22433	210.647470112284	2.2068286213843
21	22717	212.854298733668	1.3330366702845
21	22859	214.187335403952	1.2585635287428
21	23033	215.445898932695	0.73129935930442
21	23083	216.177198291999	2.0756964858004
21	23319	218.252894777799	0.72207239104887
21	23363	218.974967168848	1.7910425381667
21	23564	220.766009707015	1.018927154655
21	23637	221.78493686167	0.64073421853979
21	23716	222.42567108021	1.5478862305009
21	23863	223.973557310711	1.9917579861571
21	24095	225.965315296868	1.536448041025
21	24207	227.501763337893	3.8235655942849
21	24562	231.325328932178	2.5477746759897
21	24804	233.873103608168	0.15501065428206
21	24822	234.02811426245	0.82045118842442
21	24910	234.848565450874	5.9958658044336
21	25522	240.844431255308	2.0079236708943
21	25681	242.852354926202	5.3702881435202
21	26347	248.222643069722	5.3981850138071
21	26908	253.620828083529	4.272594435724
21	27369	257.893422519253	0.37112040280188
21	27418	258.264542922055	2.8851796709548
21	27702	261.14972259301	1.8417494589472
21	27893	262.991472051957	0.25859004281647
21	27917	263.250062094773	4.7546235762019
21	28447	268.004685670975	7.2086219662132
21	29145	275.213307637188	3.6244493600997
21	29532	278.837756997288	3.8767382339605
21	29894	282.714495231249	0.87051466618157
21	30007	283.585009897431	2.575039324365
21	30315	286.160049221796	3.6987434392028
21	30659	289.858792660999	6.8342152333193
21	31358	296.693007894318	0.26714773112236
21	31381	296.96015562544	2.1101822366738
21	31594	299.070337862114	0.66996220748655
21	31648	299.740300069601	2.8974527452571
21	31952	302.637752814858	4.1194668714948
21	32407	306.757219686353	5.0646263989352
21	32998	311.821846085288	8.2975725973705
21	33882	320.119418682659	0.03320131460515
21	33888	320.152619997264	2.6739709447379
21	34157	322.826590942002	7.0210824636802
21	34989	329.847673405682	1.888423732466
21	35169	331.736097138148	3.8155296147195
21	35558	335.551626752868	1.6724396894217
21	35721	337.22406644229	1.1809981324717
21	35832	338.405064574762	0.27127510960067
21	35853	338.676339684363	1.2844107429935
21	36007	339.960750427357	1.021419118452
21	36097	340.982169545809	0.87742992341924
21	36186	341.859599469228	0.97473427759854
21	36316	342.834333746827	6.0691921377585
21	36907	348.903525884585	0.75866149687607
21	37019	349.662187381461	1.7614916751234
21	37211	351.423679056584	1.1470481653044
21	37383	352.570727221888	0.50652924434297
21	37430	353.077256466231	1.6862259956819
21	37574	354.763482461913	1.3669073127436
21	37705	356.130389774657	0.4208996728408
21	37749	356.551289447498	0.12357003610546
21	37752	356.674859483603	0.72155838572727
21	37826	357.39641786933	3.7007951401509
21	38241	361.097213009481	0.44760187170425
21	38303	361.544814881185	3.6983356334853
21	38743	365.24315051467	2.5810528169553
21	39002	367.824203331625	3.7461981348318
21	39441	371.570401466457	0.20159199115288
21	39454	371.77199345761	0.96654054410947
21	39571	372.738534001719	1.6562272589393
21	39764	374.394761260658	6.6762034555945
21	40571	381.070964716253	2.4778473949876
21	40771	383.548812111241	2.1271870770142
21	41002	385.675999188255	6.1301989954918
21	41632	391.806198183747	0.67331422944384
21	41756	392.479512413191	1.8712628776065
21	41980	394.350775290798	1.5805415139483
21	42181	395.931316804746	5.3109163458046

