version 2
run Nonmonitoring-exponential-0-20210211-16:28:24-18488
attr configname Nonmonitoring-exponential
attr datetime 20210211-16:28:24
attr experiment Nonmonitoring-exponential
attr inifile aerocom.ini
attr iterationvars ""
attr iterationvarsf ""
attr measurement ""
attr network Aerocom
attr processid 18488
attr repetition 0
attr replication #0
attr resultdir results
attr runnumber 0
attr seedset 0
param **.t 1s
param **.k 8ms
param **.nA 1
param **.nDL 2
param **.s "70 byte"
param **.X 0s
param **.dimPoolMax 10000
param **.dimPoolMin 8000
param **.tDistribution "\"exponential\""
param **.m 1s
param **.DLMaxCapacity 0
param **.trasmitting false
param **.operationMode 1

scalar Aerocom.aircraft[0].linkSelector queueLength:sum 0
attr "" ""
attr source computeQueueLength
scalar Aerocom.aircraft[0].dataLink[0] sentPackets:count 0
attr source computeSentPackets
scalar Aerocom.aircraft[0].dataLink[0] serviceTime:mean nan
attr "" ""
attr source computeServiceTime
scalar Aerocom.aircraft[0].dataLink[0] meanMalus:count 0
attr "" ""
attr source computeMeanMalus
scalar Aerocom.aircraft[0].dataLink[0] actualCapacity:mean 8967.9494208731
attr "" ""
attr source computeActualCapacity
scalar Aerocom.aircraft[0].dataLink[0] waitingTime:mean nan
attr "" ""
attr source computeWaitingTime
scalar Aerocom.aircraft[0].dataLink[0] responseTime:mean nan
attr "" ""
attr source computeResponseTime
scalar Aerocom.aircraft[0].dataLink[1] sentPackets:count 0
attr source computeSentPackets
scalar Aerocom.aircraft[0].dataLink[1] serviceTime:mean nan
attr "" ""
attr source computeServiceTime
scalar Aerocom.aircraft[0].dataLink[1] meanMalus:count 0
attr "" ""
attr source computeMeanMalus
scalar Aerocom.aircraft[0].dataLink[1] actualCapacity:mean nan
attr "" ""
attr source computeActualCapacity
scalar Aerocom.aircraft[0].dataLink[1] waitingTime:mean nan
attr "" ""
attr source computeWaitingTime
scalar Aerocom.aircraft[0].dataLink[1] responseTime:mean nan
attr "" ""
attr source computeResponseTime
scalar Aerocom.controlTower receivedPackets:count 48950
attr source computeReceivedPackets

