file 9695982 1614185309                                         
version 2
run Nonmonitoring-exponential-42-20210224-17:48:28-26574
attr configname Nonmonitoring-exponential
attr datetime 20210224-17:48:28
attr experiment Nonmonitoring-exponential
attr inifile aerocom.ini
attr iterationvars $0=9
attr iterationvarsf 9-
attr measurement $0=9
attr network Aerocom
attr processid 26574
attr repetition 42
attr replication #42
attr resultdir results
attr runnumber 42
attr seedset 42
param **.t 2s
param **.k 9ms
param **.X 0.05s
param **.m 1s
param **.tDistribution "\"exponential\""
param **.operationMode 1
param **.s "70 byte"
param **.dimPoolMax 10000
param **.dimPoolMin 8000
param **.nDL 16
param **.nA 1
param **.DLMaxCapacity 0
param **.trasmitting false

vector 0 Aerocom.aircraft[0].linkSelector responseTime:vector ETV
attr "" ""
attr source computeResponseTime
vector 1 Aerocom.aircraft[0].packetGenerator arrivalTime:vector ETV
attr "" ""
attr source computeArrivalTime
vector 2 Aerocom.aircraft[0].linkSelector waitingTime:vector ETV
attr "" ""
attr source computeWaitingTime
vector 3 Aerocom.aircraft[0].linkSelector queueLength:vector ETV
attr "" ""
attr source computeQueueLength
vector 4 Aerocom.aircraft[0].dataLink[11] actualCapacity:vector ETV
attr "" ""
attr source computeActualCapacity
vector 5 Aerocom.aircraft[0].linkSelector serviceTime:vector ETV
attr "" ""
attr source computeServiceTime
vector 6 Aerocom.aircraft[0].dataLink[7] tDistribution:vector ETV
attr "" ""
attr source computeTDistribution
vector 7 Aerocom.aircraft[0].dataLink[11] tDistribution:vector ETV
attr "" ""
attr source computeTDistribution
vector 8 Aerocom.aircraft[0].dataLink[2] tDistribution:vector ETV
attr "" ""
attr source computeTDistribution
vector 9 Aerocom.aircraft[0].dataLink[1] tDistribution:vector ETV
attr "" ""
attr source computeTDistribution
vector 10 Aerocom.aircraft[0].dataLink[5] tDistribution:vector ETV
attr "" ""
attr source computeTDistribution
vector 11 Aerocom.aircraft[0].dataLink[12] tDistribution:vector ETV
attr "" ""
attr source computeTDistribution
vector 12 Aerocom.aircraft[0].dataLink[13] tDistribution:vector ETV
attr "" ""
attr source computeTDistribution
vector 13 Aerocom.aircraft[0].dataLink[15] tDistribution:vector ETV
attr "" ""
attr source computeTDistribution
vector 14 Aerocom.aircraft[0].dataLink[6] tDistribution:vector ETV
attr "" ""
attr source computeTDistribution
vector 15 Aerocom.aircraft[0].dataLink[10] tDistribution:vector ETV
attr "" ""
attr source computeTDistribution
vector 16 Aerocom.aircraft[0].dataLink[8] tDistribution:vector ETV
attr "" ""
attr source computeTDistribution
vector 17 Aerocom.aircraft[0].dataLink[14] tDistribution:vector ETV
attr "" ""
attr source computeTDistribution
vector 18 Aerocom.aircraft[0].dataLink[3] tDistribution:vector ETV
attr "" ""
attr source computeTDistribution
vector 19 Aerocom.aircraft[0].dataLink[0] tDistribution:vector ETV
attr "" ""
attr source computeTDistribution
vector 20 Aerocom.aircraft[0].dataLink[9] tDistribution:vector ETV
attr "" ""
attr source computeTDistribution
vector 21 Aerocom.aircraft[0].dataLink[4] tDistribution:vector ETV
attr "" ""
attr source computeTDistribution
1	3128 1306267 5626 171793 10.010399265058 306.159701696709 32768 3.30613e-07 0.108295082639 296.14976619987 5.3730038817793
0	1309395 1306845 5623 171814 10.000066060695 306.186639199454 32768 0.007030936119 0.342471756547 1192.3811639172 86.273234187564
2	2616240 1251259 5627 171814 10.010399265058 306.186639199454 32768 0 0.334591535901 935.73440113606 69.366719557089
3	3867499 886948 5627 171814 10.010399265058 306.186639199454 32768 0 41 103572 960272
4	4754447 982853 5627 171814 10.010399265058 306.186639199454 32768 8007 9962 293608865 2637840070135
5	5737300 1437370 5627 171814 10.010399265058 306.186639199454 32768 0.0070267014655692 0.0087423504433621 256.67372777291 2.015836913264
0	7174670 433793 171817 225743 306.194798658598 399.995223500306 10638 0.007079288026 0.209162993655 480.08509294358 36.97965746247
1	7608463 433941 171795 225741 306.16016546493 399.991149169298 10645 1.22701e-06 0.076715665708 93.856097941099 1.64059763683
2	8042404 420419 171817 225743 306.194798658598 399.995223500306 10638 0 0.200916056803 395.31065943487 29.940265277871
3	8462823 298192 171817 225743 306.194798658598 399.995223500306 10638 0 24 44396 414162
4	8761015 328656 171817 225743 306.194798658598 399.995223500306 10638 8021 9967 93600453 825304170635
5	9089671 476063 171817 225743 306.194798658598 399.995223500306 10638 0.0070231764823919 0.0087270913851141 84.80937678759 0.67751172414547
6	9565734 7601 5746 225420 10.275106387163 399.37794732743 183 0.011816522562466 10.368583928997 391.57542000164 1586.6166856067
7	9573335 7619 5747 224479 10.283442598206 397.714479276769 183 0.004195603066743 11.553496255142 395.38080612791 1675.4830780053
8	9580954 8230 6003 224669 10.757775495288 398.079424298884 198 0.0091069946739223 10.097810948984 390.1298067333 1597.5818576393
9	9589184 8229 6186 224365 11.160240211974 397.48119404753 198 0.00022261757663256 13.165019518353 392.25328864158 1538.9807664502
10	9597413 8068 6295 224219 11.327245916744 397.22041604104 190 0.042432936287178 14.379362277179 389.52190269818 1660.9317031204
11	9605481 7363 6500 225461 11.642014046542 399.472158238747 173 0.001869082897331 11.466607810036 390.79004414513 1734.1586561056
12	9612844 7787 6591 225217 11.794942267657 399.020976242598 183 0.00054553419459355 10.968308644618 388.69105967423 1528.8123314188
13	9620631 7876 6621 222046 11.866619048742 393.331544538608 185 0.02770882150463 10.006602415744 390.05072793741 1604.5555040252
14	9628507 8954 6624 225608 11.885081820767 399.747866995868 211 0.026652162098976 9.824727656651 393.35036134659 1325.9453263546
15	9637461 8269 7240 225249 13.016043780252 399.070311880348 194 0.0092196141723468 11.091763485007 387.67751183809 1460.3543547858
16	9645730 7903 7273 224722 13.081683012564 398.170467496535 186 0.01965815854827 10.061755903386 387.00596007812 1424.8362064678
17	9653633 7577 7324 225082 13.160312765522 398.781531890045 178 0.007852830412288 13.872799283456 386.93661907203 1651.3299247346
18	9661210 8650 7809 223988 14.008343059624 396.79766442498 203 0.01170479283032 12.442177550023 386.98338762936 1544.8014884871
19	9669860 8899 7836 224690 14.068111692633 398.119472201849 209 0.0014034049326351 9.9247261635741 387.19215816456 1284.8161761737
20	9678759 8679 8299 225589 14.9181405976 399.708626936625 204 0.01039277950483 27.129515628957 385.19314192551 1935.5749003402
21	9687438 8543 8333 225298 14.980324151769 399.153628180234 201 0.0042531059726827 9.8154423895295 385.11359345812 1446.4826823474

